WIDTH=8;
DEPTH=19200;
ADDRESS_RADIX=HEX;
DATA_RADIX=BIN;
CONTENT BEGIN
    0 : 10000101;
    1 : 10000110;
    2 : 10000111;
    3 : 10001000;
    4 : 10001010;
    5 : 10001011;
    6 : 10001100;
    7 : 10001110;
    8 : 10001111;
    9 : 10010000;
    A : 10010011;
    B : 10010100;
    C : 10010101;
    D : 10010110;
    E : 10010111;
    F : 10011000;
    10 : 10011010;
    11 : 10011011;
    12 : 10011100;
    13 : 10011101;
    14 : 10011110;
    15 : 10011110;
    16 : 10100000;
    17 : 10100000;
    18 : 10100001;
    19 : 10100010;
    1A : 10100011;
    1B : 10100011;
    1C : 10100100;
    1D : 10100101;
    1E : 10100110;
    1F : 10100111;
    20 : 10101000;
    21 : 10101000;
    22 : 10101001;
    23 : 10101001;
    24 : 10101010;
    25 : 10101011;
    26 : 10101011;
    27 : 10101100;
    28 : 10101100;
    29 : 10101100;
    2A : 10101101;
    2B : 10101110;
    2C : 10101101;
    2D : 10101110;
    2E : 10101110;
    2F : 10101110;
    30 : 10101111;
    31 : 10101111;
    32 : 10101111;
    33 : 10110000;
    34 : 10110000;
    35 : 10110001;
    36 : 10110010;
    37 : 10110010;
    38 : 10110010;
    39 : 10110011;
    3A : 10110011;
    3B : 10110100;
    3C : 10110100;
    3D : 10110100;
    3E : 10110100;
    3F : 10110101;
    40 : 10110101;
    41 : 10110110;
    42 : 10110111;
    43 : 10110110;
    44 : 10110111;
    45 : 10110111;
    46 : 10110111;
    47 : 10111000;
    48 : 10111000;
    49 : 10111000;
    4A : 10111000;
    4B : 10111000;
    4C : 10111000;
    4D : 10111000;
    4E : 10111000;
    4F : 10111000;
    50 : 10111000;
    51 : 10111000;
    52 : 10111000;
    53 : 10111000;
    54 : 10111000;
    55 : 10111000;
    56 : 10111000;
    57 : 10111000;
    58 : 10110111;
    59 : 10110111;
    5A : 10110111;
    5B : 10110111;
    5C : 10110110;
    5D : 10110110;
    5E : 10110101;
    5F : 10110101;
    60 : 10110100;
    61 : 10110100;
    62 : 10110100;
    63 : 10110100;
    64 : 10110100;
    65 : 10110011;
    66 : 10110011;
    67 : 10110011;
    68 : 10110011;
    69 : 10110010;
    6A : 10110010;
    6B : 10110010;
    6C : 10110010;
    6D : 10110010;
    6E : 10110001;
    6F : 10110000;
    70 : 10110000;
    71 : 10110000;
    72 : 10110000;
    73 : 10101111;
    74 : 10101110;
    75 : 10101110;
    76 : 10101101;
    77 : 10101101;
    78 : 10101101;
    79 : 10101100;
    7A : 10101011;
    7B : 10101011;
    7C : 10101010;
    7D : 10101010;
    7E : 10101000;
    7F : 10101000;
    80 : 10100111;
    81 : 10100110;
    82 : 10100101;
    83 : 10100100;
    84 : 10100011;
    85 : 10100010;
    86 : 10100001;
    87 : 10011111;
    88 : 10011110;
    89 : 10011110;
    8A : 10011100;
    8B : 10011011;
    8C : 10011010;
    8D : 10011001;
    8E : 10011000;
    8F : 10010111;
    90 : 10010110;
    91 : 10010101;
    92 : 10010011;
    93 : 10010010;
    94 : 10010000;
    95 : 10010000;
    96 : 10001110;
    97 : 10001101;
    98 : 10001011;
    99 : 10001010;
    9A : 10001001;
    9B : 10001001;
    9C : 10001000;
    9D : 10000111;
    9E : 10000110;
    9F : 10000101;
    A0 : 10000110;
    A1 : 10000111;
    A2 : 10001000;
    A3 : 10001001;
    A4 : 10001010;
    A5 : 10001100;
    A6 : 10001101;
    A7 : 10001111;
    A8 : 10010000;
    A9 : 10010001;
    AA : 10010011;
    AB : 10010100;
    AC : 10010101;
    AD : 10010110;
    AE : 10011000;
    AF : 10011001;
    B0 : 10011010;
    B1 : 10011011;
    B2 : 10011100;
    B3 : 10011101;
    B4 : 10011110;
    B5 : 10011111;
    B6 : 10100000;
    B7 : 10100000;
    B8 : 10100001;
    B9 : 10100010;
    BA : 10100011;
    BB : 10100100;
    BC : 10100101;
    BD : 10100110;
    BE : 10100111;
    BF : 10100111;
    C0 : 10101000;
    C1 : 10101001;
    C2 : 10101001;
    C3 : 10101010;
    C4 : 10101011;
    C5 : 10101011;
    C6 : 10101011;
    C7 : 10101100;
    C8 : 10101100;
    C9 : 10101100;
    CA : 10101101;
    CB : 10101101;
    CC : 10101101;
    CD : 10101101;
    CE : 10101101;
    CF : 10101110;
    D0 : 10101110;
    D1 : 10101101;
    D2 : 10101110;
    D3 : 10101111;
    D4 : 10101111;
    D5 : 10110000;
    D6 : 10110000;
    D7 : 10110010;
    D8 : 10110011;
    D9 : 10110011;
    DA : 10110011;
    DB : 10110100;
    DC : 10110100;
    DD : 10110100;
    DE : 10110101;
    DF : 10110101;
    E0 : 10110101;
    E1 : 10110110;
    E2 : 10110110;
    E3 : 10110110;
    E4 : 10110111;
    E5 : 10110111;
    E6 : 10110111;
    E7 : 10110111;
    E8 : 10110111;
    E9 : 10111000;
    EA : 10111000;
    EB : 10111000;
    EC : 10111000;
    ED : 10111000;
    EE : 10111000;
    EF : 10111000;
    F0 : 10111000;
    F1 : 10111000;
    F2 : 10110111;
    F3 : 10111000;
    F4 : 10110111;
    F5 : 10110111;
    F6 : 10110111;
    F7 : 10110111;
    F8 : 10110111;
    F9 : 10110111;
    FA : 10110110;
    FB : 10110110;
    FC : 10110110;
    FD : 10110110;
    FE : 10110101;
    FF : 10110101;
    100 : 10110101;
    101 : 10110100;
    102 : 10110100;
    103 : 10110100;
    104 : 10110011;
    105 : 10110011;
    106 : 10110010;
    107 : 10110010;
    108 : 10110010;
    109 : 10110010;
    10A : 10110001;
    10B : 10110001;
    10C : 10110001;
    10D : 10110001;
    10E : 10110001;
    10F : 10110001;
    110 : 10110000;
    111 : 10110000;
    112 : 10110000;
    113 : 10101111;
    114 : 10101110;
    115 : 10101110;
    116 : 10101110;
    117 : 10101101;
    118 : 10101101;
    119 : 10101100;
    11A : 10101011;
    11B : 10101011;
    11C : 10101010;
    11D : 10101001;
    11E : 10101001;
    11F : 10101000;
    120 : 10100111;
    121 : 10100111;
    122 : 10100110;
    123 : 10100100;
    124 : 10100011;
    125 : 10100010;
    126 : 10100001;
    127 : 10100000;
    128 : 10011111;
    129 : 10011110;
    12A : 10011101;
    12B : 10011011;
    12C : 10011010;
    12D : 10011001;
    12E : 10011000;
    12F : 10010111;
    130 : 10010110;
    131 : 10010101;
    132 : 10010011;
    133 : 10010010;
    134 : 10010001;
    135 : 10010000;
    136 : 10001110;
    137 : 10001101;
    138 : 10001100;
    139 : 10001011;
    13A : 10001010;
    13B : 10001001;
    13C : 10001000;
    13D : 10000111;
    13E : 10000110;
    13F : 10000101;
    140 : 10000110;
    141 : 10000111;
    142 : 10001001;
    143 : 10001010;
    144 : 10001011;
    145 : 10001100;
    146 : 10001110;
    147 : 10001111;
    148 : 10010000;
    149 : 10010001;
    14A : 10010011;
    14B : 10010100;
    14C : 10010110;
    14D : 10010111;
    14E : 10011000;
    14F : 10011001;
    150 : 10011010;
    151 : 10011011;
    152 : 10011100;
    153 : 10011100;
    154 : 10011110;
    155 : 10011111;
    156 : 10100000;
    157 : 10100001;
    158 : 10100010;
    159 : 10100011;
    15A : 10100100;
    15B : 10100101;
    15C : 10100110;
    15D : 10100110;
    15E : 10100111;
    15F : 10100111;
    160 : 10101000;
    161 : 10101000;
    162 : 10101001;
    163 : 10101011;
    164 : 10101011;
    165 : 10101010;
    166 : 10101010;
    167 : 10101010;
    168 : 10101100;
    169 : 10101100;
    16A : 10101111;
    16B : 10110001;
    16C : 10110001;
    16D : 10110011;
    16E : 10110001;
    16F : 10110000;
    170 : 10110001;
    171 : 10110010;
    172 : 10110010;
    173 : 10110001;
    174 : 10110000;
    175 : 10110000;
    176 : 10110001;
    177 : 10110000;
    178 : 10110001;
    179 : 10110010;
    17A : 10110010;
    17B : 10110011;
    17C : 10110100;
    17D : 10110100;
    17E : 10110100;
    17F : 10110101;
    180 : 10110101;
    181 : 10110101;
    182 : 10110101;
    183 : 10110110;
    184 : 10110110;
    185 : 10110111;
    186 : 10110111;
    187 : 10110111;
    188 : 10110110;
    189 : 10110111;
    18A : 10110111;
    18B : 10110111;
    18C : 10111000;
    18D : 10111000;
    18E : 10110111;
    18F : 10110111;
    190 : 10111000;
    191 : 10111000;
    192 : 10110111;
    193 : 10110111;
    194 : 10110111;
    195 : 10110111;
    196 : 10110110;
    197 : 10110111;
    198 : 10110111;
    199 : 10110110;
    19A : 10110110;
    19B : 10110101;
    19C : 10110101;
    19D : 10110101;
    19E : 10110100;
    19F : 10110100;
    1A0 : 10110100;
    1A1 : 10110011;
    1A2 : 10110011;
    1A3 : 10110011;
    1A4 : 10110011;
    1A5 : 10110010;
    1A6 : 10110010;
    1A7 : 10110001;
    1A8 : 10110010;
    1A9 : 10110001;
    1AA : 10110001;
    1AB : 10110001;
    1AC : 10110001;
    1AD : 10110000;
    1AE : 10110000;
    1AF : 10110001;
    1B0 : 10110000;
    1B1 : 10110000;
    1B2 : 10101111;
    1B3 : 10101111;
    1B4 : 10101110;
    1B5 : 10101110;
    1B6 : 10101110;
    1B7 : 10101101;
    1B8 : 10101101;
    1B9 : 10101100;
    1BA : 10101100;
    1BB : 10101011;
    1BC : 10101010;
    1BD : 10101010;
    1BE : 10101001;
    1BF : 10101000;
    1C0 : 10100111;
    1C1 : 10100111;
    1C2 : 10100110;
    1C3 : 10100101;
    1C4 : 10100100;
    1C5 : 10100011;
    1C6 : 10100010;
    1C7 : 10100000;
    1C8 : 10011111;
    1C9 : 10011110;
    1CA : 10011101;
    1CB : 10011100;
    1CC : 10011011;
    1CD : 10011010;
    1CE : 10011001;
    1CF : 10010111;
    1D0 : 10010110;
    1D1 : 10010101;
    1D2 : 10010100;
    1D3 : 10010011;
    1D4 : 10010010;
    1D5 : 10010000;
    1D6 : 10001111;
    1D7 : 10001110;
    1D8 : 10001100;
    1D9 : 10001011;
    1DA : 10001010;
    1DB : 10001000;
    1DC : 10001000;
    1DD : 10000110;
    1DE : 10000101;
    1DF : 10000100;
    1E0 : 10000110;
    1E1 : 10000111;
    1E2 : 10001001;
    1E3 : 10001010;
    1E4 : 10001011;
    1E5 : 10001101;
    1E6 : 10001101;
    1E7 : 10001111;
    1E8 : 10010000;
    1E9 : 10010010;
    1EA : 10010011;
    1EB : 10010100;
    1EC : 10010110;
    1ED : 10010111;
    1EE : 10011000;
    1EF : 10011001;
    1F0 : 10011001;
    1F1 : 10011011;
    1F2 : 10011100;
    1F3 : 10011101;
    1F4 : 10011110;
    1F5 : 10011111;
    1F6 : 10100000;
    1F7 : 10100000;
    1F8 : 10100001;
    1F9 : 10100010;
    1FA : 10100011;
    1FB : 10100100;
    1FC : 10100101;
    1FD : 10100110;
    1FE : 10100111;
    1FF : 10100111;
    200 : 10101000;
    201 : 10100111;
    202 : 10100111;
    203 : 10101001;
    204 : 10101011;
    205 : 10110000;
    206 : 10110001;
    207 : 10110010;
    208 : 10101110;
    209 : 10101001;
    20A : 10011111;
    20B : 10010101;
    20C : 10001010;
    20D : 01110110;
    20E : 01110111;
    20F : 01111101;
    210 : 10000000;
    211 : 10000000;
    212 : 01111111;
    213 : 10001111;
    214 : 10100000;
    215 : 10100010;
    216 : 10101001;
    217 : 10110000;
    218 : 10110000;
    219 : 10110010;
    21A : 10110011;
    21B : 10110011;
    21C : 10110011;
    21D : 10110100;
    21E : 10110100;
    21F : 10110100;
    220 : 10110100;
    221 : 10110101;
    222 : 10110101;
    223 : 10110101;
    224 : 10110110;
    225 : 10110101;
    226 : 10110110;
    227 : 10110110;
    228 : 10110110;
    229 : 10110110;
    22A : 10110111;
    22B : 10110111;
    22C : 10110111;
    22D : 10110111;
    22E : 10110111;
    22F : 10110111;
    230 : 10110110;
    231 : 10110111;
    232 : 10110111;
    233 : 10110111;
    234 : 10110110;
    235 : 10110110;
    236 : 10110110;
    237 : 10110110;
    238 : 10110110;
    239 : 10110110;
    23A : 10110101;
    23B : 10110101;
    23C : 10110100;
    23D : 10110100;
    23E : 10110100;
    23F : 10110011;
    240 : 10110011;
    241 : 10110011;
    242 : 10110010;
    243 : 10110011;
    244 : 10110010;
    245 : 10110010;
    246 : 10110010;
    247 : 10110010;
    248 : 10110010;
    249 : 10110001;
    24A : 10110001;
    24B : 10110001;
    24C : 10110001;
    24D : 10110000;
    24E : 10110000;
    24F : 10110000;
    250 : 10101111;
    251 : 10101111;
    252 : 10101111;
    253 : 10101111;
    254 : 10101110;
    255 : 10101110;
    256 : 10101110;
    257 : 10101101;
    258 : 10101101;
    259 : 10101101;
    25A : 10101100;
    25B : 10101100;
    25C : 10101011;
    25D : 10101010;
    25E : 10101001;
    25F : 10101001;
    260 : 10101000;
    261 : 10100111;
    262 : 10100110;
    263 : 10100101;
    264 : 10100011;
    265 : 10100011;
    266 : 10100010;
    267 : 10100001;
    268 : 10100000;
    269 : 10011111;
    26A : 10011101;
    26B : 10011100;
    26C : 10011011;
    26D : 10011001;
    26E : 10011001;
    26F : 10011000;
    270 : 10010110;
    271 : 10010101;
    272 : 10010100;
    273 : 10010011;
    274 : 10010001;
    275 : 10010001;
    276 : 10001111;
    277 : 10001110;
    278 : 10001101;
    279 : 10001011;
    27A : 10001010;
    27B : 10001001;
    27C : 10001000;
    27D : 10000111;
    27E : 10000110;
    27F : 10000101;
    280 : 10000110;
    281 : 10000111;
    282 : 10001000;
    283 : 10001010;
    284 : 10001011;
    285 : 10001101;
    286 : 10001110;
    287 : 10001111;
    288 : 10010000;
    289 : 10010010;
    28A : 10010011;
    28B : 10010101;
    28C : 10010110;
    28D : 10010111;
    28E : 10011000;
    28F : 10011000;
    290 : 10011001;
    291 : 10011010;
    292 : 10011100;
    293 : 10011100;
    294 : 10011101;
    295 : 10011111;
    296 : 10100000;
    297 : 10100000;
    298 : 10100000;
    299 : 10100001;
    29A : 10100011;
    29B : 10100011;
    29C : 10100100;
    29D : 10100110;
    29E : 10101000;
    29F : 10101001;
    2A0 : 10101100;
    2A1 : 10101110;
    2A2 : 10110000;
    2A3 : 10101110;
    2A4 : 10100110;
    2A5 : 10001010;
    2A6 : 01110100;
    2A7 : 01010010;
    2A8 : 01001100;
    2A9 : 01001111;
    2AA : 01000000;
    2AB : 00111000;
    2AC : 00101111;
    2AD : 00010111;
    2AE : 00011110;
    2AF : 00100111;
    2B0 : 00110000;
    2B1 : 00110011;
    2B2 : 00101111;
    2B3 : 00111000;
    2B4 : 01000100;
    2B5 : 01010110;
    2B6 : 10000001;
    2B7 : 10011011;
    2B8 : 10101100;
    2B9 : 10110000;
    2BA : 10110010;
    2BB : 10110011;
    2BC : 10110100;
    2BD : 10110100;
    2BE : 10110100;
    2BF : 10110101;
    2C0 : 10110101;
    2C1 : 10110101;
    2C2 : 10110101;
    2C3 : 10110110;
    2C4 : 10110110;
    2C5 : 10110101;
    2C6 : 10110100;
    2C7 : 10110101;
    2C8 : 10110101;
    2C9 : 10110101;
    2CA : 10110110;
    2CB : 10110111;
    2CC : 10110110;
    2CD : 10110110;
    2CE : 10110110;
    2CF : 10110110;
    2D0 : 10110111;
    2D1 : 10110111;
    2D2 : 10110110;
    2D3 : 10110110;
    2D4 : 10110110;
    2D5 : 10110110;
    2D6 : 10110110;
    2D7 : 10110101;
    2D8 : 10110101;
    2D9 : 10110101;
    2DA : 10110101;
    2DB : 10110100;
    2DC : 10110100;
    2DD : 10110100;
    2DE : 10110011;
    2DF : 10110011;
    2E0 : 10110011;
    2E1 : 10110010;
    2E2 : 10110010;
    2E3 : 10110010;
    2E4 : 10110010;
    2E5 : 10110010;
    2E6 : 10110010;
    2E7 : 10110001;
    2E8 : 10110001;
    2E9 : 10110001;
    2EA : 10110001;
    2EB : 10110001;
    2EC : 10110001;
    2ED : 10110000;
    2EE : 10110000;
    2EF : 10101111;
    2F0 : 10110000;
    2F1 : 10101111;
    2F2 : 10101111;
    2F3 : 10101111;
    2F4 : 10101110;
    2F5 : 10101110;
    2F6 : 10101101;
    2F7 : 10101101;
    2F8 : 10101101;
    2F9 : 10101100;
    2FA : 10101100;
    2FB : 10101011;
    2FC : 10101011;
    2FD : 10101010;
    2FE : 10101001;
    2FF : 10101001;
    300 : 10101000;
    301 : 10100111;
    302 : 10100110;
    303 : 10100101;
    304 : 10100100;
    305 : 10100011;
    306 : 10100010;
    307 : 10100001;
    308 : 10100000;
    309 : 10011111;
    30A : 10011110;
    30B : 10011101;
    30C : 10011011;
    30D : 10011010;
    30E : 10011001;
    30F : 10011000;
    310 : 10010111;
    311 : 10010110;
    312 : 10010101;
    313 : 10010100;
    314 : 10010010;
    315 : 10010001;
    316 : 10010000;
    317 : 10001111;
    318 : 10001101;
    319 : 10001011;
    31A : 10001010;
    31B : 10001001;
    31C : 10001000;
    31D : 10000111;
    31E : 10000110;
    31F : 10000100;
    320 : 10000111;
    321 : 10001000;
    322 : 10001001;
    323 : 10001010;
    324 : 10001011;
    325 : 10001100;
    326 : 10001110;
    327 : 10001111;
    328 : 10010000;
    329 : 10010010;
    32A : 10010011;
    32B : 10010100;
    32C : 10010101;
    32D : 10010110;
    32E : 10010111;
    32F : 10011000;
    330 : 10011010;
    331 : 10011010;
    332 : 10011100;
    333 : 10011101;
    334 : 10011110;
    335 : 10011111;
    336 : 10100010;
    337 : 10101000;
    338 : 10101010;
    339 : 10101011;
    33A : 10101011;
    33B : 10101011;
    33C : 10101100;
    33D : 10101011;
    33E : 10101010;
    33F : 10101000;
    340 : 10011101;
    341 : 10001000;
    342 : 01110101;
    343 : 01011001;
    344 : 00111000;
    345 : 00100001;
    346 : 00100000;
    347 : 00101010;
    348 : 00100111;
    349 : 00110111;
    34A : 01000010;
    34B : 00111100;
    34C : 01000000;
    34D : 00110101;
    34E : 00101111;
    34F : 00110000;
    350 : 00111000;
    351 : 00111000;
    352 : 00101110;
    353 : 00101100;
    354 : 00101111;
    355 : 00110111;
    356 : 01010010;
    357 : 01111111;
    358 : 10010101;
    359 : 10101101;
    35A : 10110011;
    35B : 10110011;
    35C : 10110100;
    35D : 10110101;
    35E : 10110101;
    35F : 10110101;
    360 : 10110110;
    361 : 10110101;
    362 : 10110110;
    363 : 10111000;
    364 : 10111000;
    365 : 10111001;
    366 : 10111100;
    367 : 10111011;
    368 : 10111010;
    369 : 10111010;
    36A : 10111001;
    36B : 10110110;
    36C : 10110101;
    36D : 10110101;
    36E : 10110110;
    36F : 10110110;
    370 : 10110110;
    371 : 10110110;
    372 : 10110110;
    373 : 10110110;
    374 : 10110111;
    375 : 10110111;
    376 : 10110110;
    377 : 10110101;
    378 : 10110110;
    379 : 10110101;
    37A : 10110101;
    37B : 10110101;
    37C : 10110100;
    37D : 10110011;
    37E : 10110011;
    37F : 10110011;
    380 : 10110011;
    381 : 10110011;
    382 : 10110011;
    383 : 10110011;
    384 : 10110010;
    385 : 10110010;
    386 : 10110010;
    387 : 10110010;
    388 : 10110010;
    389 : 10110010;
    38A : 10110001;
    38B : 10110001;
    38C : 10110001;
    38D : 10110001;
    38E : 10110000;
    38F : 10110000;
    390 : 10110000;
    391 : 10101111;
    392 : 10101111;
    393 : 10101110;
    394 : 10101110;
    395 : 10101101;
    396 : 10101101;
    397 : 10101101;
    398 : 10101100;
    399 : 10101100;
    39A : 10101100;
    39B : 10101100;
    39C : 10101011;
    39D : 10101010;
    39E : 10101010;
    39F : 10101001;
    3A0 : 10101000;
    3A1 : 10100111;
    3A2 : 10100110;
    3A3 : 10100101;
    3A4 : 10100101;
    3A5 : 10100100;
    3A6 : 10100011;
    3A7 : 10100010;
    3A8 : 10100001;
    3A9 : 10011111;
    3AA : 10011110;
    3AB : 10011101;
    3AC : 10011100;
    3AD : 10011011;
    3AE : 10011010;
    3AF : 10011001;
    3B0 : 10011000;
    3B1 : 10010110;
    3B2 : 10010101;
    3B3 : 10010100;
    3B4 : 10010011;
    3B5 : 10010010;
    3B6 : 10010001;
    3B7 : 10001111;
    3B8 : 10001110;
    3B9 : 10001100;
    3BA : 10001011;
    3BB : 10001010;
    3BC : 10001001;
    3BD : 10000111;
    3BE : 10000110;
    3BF : 10000110;
    3C0 : 10000111;
    3C1 : 10001000;
    3C2 : 10001001;
    3C3 : 10001010;
    3C4 : 10001011;
    3C5 : 10001100;
    3C6 : 10001110;
    3C7 : 10010000;
    3C8 : 10010001;
    3C9 : 10010010;
    3CA : 10010011;
    3CB : 10010100;
    3CC : 10010101;
    3CD : 10010110;
    3CE : 10010111;
    3CF : 10011001;
    3D0 : 10011010;
    3D1 : 10011011;
    3D2 : 10011100;
    3D3 : 10011111;
    3D4 : 10100000;
    3D5 : 10100010;
    3D6 : 10100001;
    3D7 : 10001010;
    3D8 : 01111000;
    3D9 : 01101111;
    3DA : 01011111;
    3DB : 01011110;
    3DC : 01011100;
    3DD : 01010100;
    3DE : 01001001;
    3DF : 01001011;
    3E0 : 01000101;
    3E1 : 00111111;
    3E2 : 00110000;
    3E3 : 00101011;
    3E4 : 00110101;
    3E5 : 00111101;
    3E6 : 00111011;
    3E7 : 00111110;
    3E8 : 01000101;
    3E9 : 01000010;
    3EA : 01000011;
    3EB : 01000100;
    3EC : 01000010;
    3ED : 01001011;
    3EE : 01000111;
    3EF : 01000010;
    3F0 : 01000011;
    3F1 : 01000011;
    3F2 : 00111100;
    3F3 : 00110100;
    3F4 : 00110011;
    3F5 : 01000011;
    3F6 : 01000110;
    3F7 : 01101011;
    3F8 : 10001010;
    3F9 : 10010110;
    3FA : 10101110;
    3FB : 10110011;
    3FC : 10110100;
    3FD : 10110101;
    3FE : 10110101;
    3FF : 10110110;
    400 : 10110110;
    401 : 10111001;
    402 : 10111000;
    403 : 10110001;
    404 : 10110011;
    405 : 10101110;
    406 : 10011100;
    407 : 10011011;
    408 : 10100010;
    409 : 10011111;
    40A : 10100001;
    40B : 10110000;
    40C : 10111001;
    40D : 10111011;
    40E : 10111000;
    40F : 10110101;
    410 : 10110111;
    411 : 10110111;
    412 : 10110110;
    413 : 10110101;
    414 : 10110101;
    415 : 10110110;
    416 : 10110110;
    417 : 10110110;
    418 : 10110110;
    419 : 10110110;
    41A : 10110110;
    41B : 10110101;
    41C : 10110100;
    41D : 10110100;
    41E : 10110100;
    41F : 10110011;
    420 : 10110011;
    421 : 10110011;
    422 : 10110011;
    423 : 10110011;
    424 : 10110011;
    425 : 10110011;
    426 : 10110011;
    427 : 10110011;
    428 : 10110011;
    429 : 10110011;
    42A : 10110010;
    42B : 10110010;
    42C : 10110010;
    42D : 10110001;
    42E : 10110001;
    42F : 10110001;
    430 : 10110000;
    431 : 10110000;
    432 : 10101111;
    433 : 10101111;
    434 : 10101111;
    435 : 10101110;
    436 : 10101101;
    437 : 10101101;
    438 : 10101101;
    439 : 10101100;
    43A : 10101100;
    43B : 10101011;
    43C : 10101011;
    43D : 10101010;
    43E : 10101001;
    43F : 10101001;
    440 : 10101000;
    441 : 10100111;
    442 : 10100111;
    443 : 10100110;
    444 : 10100101;
    445 : 10100100;
    446 : 10100011;
    447 : 10100010;
    448 : 10100001;
    449 : 10100000;
    44A : 10011111;
    44B : 10011110;
    44C : 10011100;
    44D : 10011011;
    44E : 10011010;
    44F : 10011001;
    450 : 10011000;
    451 : 10010111;
    452 : 10010110;
    453 : 10010101;
    454 : 10010011;
    455 : 10010010;
    456 : 10010001;
    457 : 10010000;
    458 : 10001111;
    459 : 10001101;
    45A : 10001100;
    45B : 10001011;
    45C : 10001001;
    45D : 10001000;
    45E : 10000111;
    45F : 10000110;
    460 : 10001000;
    461 : 10001001;
    462 : 10001010;
    463 : 10001011;
    464 : 10001100;
    465 : 10001101;
    466 : 10001110;
    467 : 10010000;
    468 : 10010001;
    469 : 10010010;
    46A : 10010011;
    46B : 10010100;
    46C : 10010101;
    46D : 10010110;
    46E : 10011000;
    46F : 10011010;
    470 : 10011011;
    471 : 10011110;
    472 : 10100001;
    473 : 10011110;
    474 : 10011110;
    475 : 10100110;
    476 : 01110101;
    477 : 00101111;
    478 : 00111010;
    479 : 00110111;
    47A : 00101011;
    47B : 00101100;
    47C : 00110100;
    47D : 00101101;
    47E : 00100110;
    47F : 00111010;
    480 : 00111111;
    481 : 01001010;
    482 : 01000000;
    483 : 00111111;
    484 : 00110010;
    485 : 00101001;
    486 : 00101011;
    487 : 00101101;
    488 : 00111000;
    489 : 00110101;
    48A : 00101010;
    48B : 00100111;
    48C : 00101001;
    48D : 00110000;
    48E : 00110011;
    48F : 00111010;
    490 : 01000010;
    491 : 01010001;
    492 : 01010011;
    493 : 01000111;
    494 : 00111001;
    495 : 01001011;
    496 : 01010100;
    497 : 01101000;
    498 : 10001011;
    499 : 10010111;
    49A : 10011011;
    49B : 10110011;
    49C : 10110111;
    49D : 10111000;
    49E : 10111010;
    49F : 10111001;
    4A0 : 10111100;
    4A1 : 10110000;
    4A2 : 10010101;
    4A3 : 10000010;
    4A4 : 01111111;
    4A5 : 01110010;
    4A6 : 01010100;
    4A7 : 01010000;
    4A8 : 01001101;
    4A9 : 01001000;
    4AA : 01000110;
    4AB : 01100001;
    4AC : 10011000;
    4AD : 10011111;
    4AE : 10101100;
    4AF : 10111010;
    4B0 : 10110100;
    4B1 : 10110011;
    4B2 : 10111000;
    4B3 : 10111011;
    4B4 : 10111011;
    4B5 : 10111010;
    4B6 : 10111000;
    4B7 : 10110111;
    4B8 : 10110110;
    4B9 : 10110110;
    4BA : 10110110;
    4BB : 10110110;
    4BC : 10110101;
    4BD : 10110100;
    4BE : 10110100;
    4BF : 10110100;
    4C0 : 10110100;
    4C1 : 10110100;
    4C2 : 10110101;
    4C3 : 10110100;
    4C4 : 10110100;
    4C5 : 10110100;
    4C6 : 10110100;
    4C7 : 10110100;
    4C8 : 10110011;
    4C9 : 10110011;
    4CA : 10110011;
    4CB : 10110011;
    4CC : 10110010;
    4CD : 10110011;
    4CE : 10110010;
    4CF : 10110001;
    4D0 : 10110001;
    4D1 : 10110000;
    4D2 : 10110000;
    4D3 : 10110000;
    4D4 : 10101111;
    4D5 : 10101111;
    4D6 : 10101110;
    4D7 : 10101101;
    4D8 : 10101101;
    4D9 : 10101100;
    4DA : 10101011;
    4DB : 10101100;
    4DC : 10101011;
    4DD : 10101010;
    4DE : 10101010;
    4DF : 10101001;
    4E0 : 10101000;
    4E1 : 10101000;
    4E2 : 10100111;
    4E3 : 10100110;
    4E4 : 10100101;
    4E5 : 10100100;
    4E6 : 10100011;
    4E7 : 10100011;
    4E8 : 10100010;
    4E9 : 10100000;
    4EA : 10011111;
    4EB : 10011111;
    4EC : 10011101;
    4ED : 10011101;
    4EE : 10011100;
    4EF : 10011010;
    4F0 : 10011010;
    4F1 : 10011000;
    4F2 : 10010110;
    4F3 : 10010110;
    4F4 : 10010101;
    4F5 : 10010011;
    4F6 : 10010010;
    4F7 : 10010001;
    4F8 : 10010000;
    4F9 : 10001111;
    4FA : 10001101;
    4FB : 10001100;
    4FC : 10001011;
    4FD : 10001001;
    4FE : 10001000;
    4FF : 10000111;
    500 : 10001000;
    501 : 10001001;
    502 : 10001011;
    503 : 10001100;
    504 : 10001101;
    505 : 10001110;
    506 : 10001111;
    507 : 10010001;
    508 : 10010010;
    509 : 10010011;
    50A : 10010011;
    50B : 10010101;
    50C : 10010100;
    50D : 10010100;
    50E : 10010010;
    50F : 10001101;
    510 : 10010010;
    511 : 10001100;
    512 : 01111100;
    513 : 01111011;
    514 : 01110111;
    515 : 01101101;
    516 : 01001111;
    517 : 00111001;
    518 : 01000001;
    519 : 00111110;
    51A : 00111110;
    51B : 00111100;
    51C : 01001110;
    51D : 01000100;
    51E : 01000101;
    51F : 01001111;
    520 : 01001101;
    521 : 01001000;
    522 : 00111001;
    523 : 00101010;
    524 : 00100100;
    525 : 00101100;
    526 : 00101101;
    527 : 00110000;
    528 : 00110001;
    529 : 00110001;
    52A : 00110010;
    52B : 00101011;
    52C : 00101100;
    52D : 00110011;
    52E : 00101110;
    52F : 00101111;
    530 : 00110000;
    531 : 01000100;
    532 : 01010110;
    533 : 01011100;
    534 : 01010100;
    535 : 01010011;
    536 : 01011110;
    537 : 01100110;
    538 : 10000110;
    539 : 10010100;
    53A : 10010010;
    53B : 10010111;
    53C : 10011001;
    53D : 10011110;
    53E : 10100101;
    53F : 10110101;
    540 : 10100101;
    541 : 10001100;
    542 : 01111100;
    543 : 01111011;
    544 : 01101111;
    545 : 01011100;
    546 : 01010111;
    547 : 01010001;
    548 : 01001100;
    549 : 01001001;
    54A : 01000100;
    54B : 01001000;
    54C : 01001010;
    54D : 01001010;
    54E : 01011101;
    54F : 01101101;
    550 : 01100111;
    551 : 01011011;
    552 : 01011100;
    553 : 10000001;
    554 : 10011101;
    555 : 10100111;
    556 : 10101011;
    557 : 10110100;
    558 : 10111000;
    559 : 10110111;
    55A : 10110101;
    55B : 10110101;
    55C : 10110101;
    55D : 10110101;
    55E : 10110100;
    55F : 10110101;
    560 : 10110101;
    561 : 10110101;
    562 : 10110101;
    563 : 10110101;
    564 : 10110101;
    565 : 10110101;
    566 : 10110101;
    567 : 10110101;
    568 : 10110100;
    569 : 10110100;
    56A : 10110100;
    56B : 10110011;
    56C : 10110011;
    56D : 10110011;
    56E : 10110011;
    56F : 10110010;
    570 : 10110001;
    571 : 10110001;
    572 : 10110001;
    573 : 10110000;
    574 : 10110000;
    575 : 10101111;
    576 : 10101111;
    577 : 10101111;
    578 : 10101110;
    579 : 10101101;
    57A : 10101101;
    57B : 10101101;
    57C : 10101100;
    57D : 10101011;
    57E : 10101011;
    57F : 10101010;
    580 : 10101001;
    581 : 10101001;
    582 : 10100111;
    583 : 10100111;
    584 : 10100110;
    585 : 10100101;
    586 : 10100100;
    587 : 10100100;
    588 : 10100011;
    589 : 10100001;
    58A : 10100001;
    58B : 10100000;
    58C : 10011111;
    58D : 10011110;
    58E : 10011100;
    58F : 10011011;
    590 : 10011010;
    591 : 10011001;
    592 : 10010111;
    593 : 10010110;
    594 : 10010110;
    595 : 10010101;
    596 : 10010011;
    597 : 10010010;
    598 : 10010001;
    599 : 10010000;
    59A : 10001110;
    59B : 10001101;
    59C : 10001100;
    59D : 10001011;
    59E : 10001001;
    59F : 10001001;
    5A0 : 10001000;
    5A1 : 10001010;
    5A2 : 10001011;
    5A3 : 10001101;
    5A4 : 10001101;
    5A5 : 10001110;
    5A6 : 10001111;
    5A7 : 10010001;
    5A8 : 10010010;
    5A9 : 10010011;
    5AA : 10010100;
    5AB : 10010001;
    5AC : 10001111;
    5AD : 10000011;
    5AE : 01101011;
    5AF : 01011000;
    5B0 : 01000100;
    5B1 : 01000000;
    5B2 : 01011001;
    5B3 : 01111001;
    5B4 : 01100110;
    5B5 : 01010001;
    5B6 : 01010010;
    5B7 : 01010001;
    5B8 : 01000011;
    5B9 : 01001001;
    5BA : 01011101;
    5BB : 01010111;
    5BC : 01100000;
    5BD : 01100000;
    5BE : 01100001;
    5BF : 01011111;
    5C0 : 01010001;
    5C1 : 00111010;
    5C2 : 00101100;
    5C3 : 00101000;
    5C4 : 00101011;
    5C5 : 00101100;
    5C6 : 00101000;
    5C7 : 00101100;
    5C8 : 00100111;
    5C9 : 00100100;
    5CA : 00100100;
    5CB : 00100010;
    5CC : 00101101;
    5CD : 00101010;
    5CE : 00101100;
    5CF : 00110100;
    5D0 : 00110011;
    5D1 : 00110101;
    5D2 : 00111101;
    5D3 : 01011110;
    5D4 : 01100100;
    5D5 : 01011111;
    5D6 : 01100101;
    5D7 : 01100111;
    5D8 : 10000010;
    5D9 : 10001011;
    5DA : 01110111;
    5DB : 01110110;
    5DC : 10000101;
    5DD : 10000110;
    5DE : 10010010;
    5DF : 10011010;
    5E0 : 10000111;
    5E1 : 01110010;
    5E2 : 01111110;
    5E3 : 10000000;
    5E4 : 01110000;
    5E5 : 01010111;
    5E6 : 01001010;
    5E7 : 01001010;
    5E8 : 01010100;
    5E9 : 01000111;
    5EA : 01000011;
    5EB : 01000011;
    5EC : 00111110;
    5ED : 00111101;
    5EE : 01000101;
    5EF : 00111011;
    5F0 : 00111101;
    5F1 : 01000011;
    5F2 : 01000110;
    5F3 : 01010110;
    5F4 : 01011100;
    5F5 : 01010010;
    5F6 : 01011110;
    5F7 : 10000110;
    5F8 : 10101100;
    5F9 : 10110111;
    5FA : 10110110;
    5FB : 10111000;
    5FC : 10110110;
    5FD : 10110011;
    5FE : 10110101;
    5FF : 10110100;
    600 : 10110101;
    601 : 10110101;
    602 : 10110101;
    603 : 10110101;
    604 : 10110110;
    605 : 10110101;
    606 : 10110101;
    607 : 10110101;
    608 : 10110101;
    609 : 10110101;
    60A : 10110100;
    60B : 10110100;
    60C : 10110100;
    60D : 10110011;
    60E : 10110011;
    60F : 10110010;
    610 : 10110010;
    611 : 10110010;
    612 : 10110010;
    613 : 10110001;
    614 : 10110001;
    615 : 10110001;
    616 : 10110000;
    617 : 10101111;
    618 : 10101111;
    619 : 10101110;
    61A : 10101110;
    61B : 10101101;
    61C : 10101100;
    61D : 10101100;
    61E : 10101100;
    61F : 10101011;
    620 : 10101010;
    621 : 10101001;
    622 : 10101001;
    623 : 10101000;
    624 : 10100111;
    625 : 10100110;
    626 : 10100101;
    627 : 10100100;
    628 : 10100011;
    629 : 10100011;
    62A : 10100010;
    62B : 10100001;
    62C : 10011111;
    62D : 10011110;
    62E : 10011101;
    62F : 10011011;
    630 : 10011011;
    631 : 10011010;
    632 : 10011001;
    633 : 10011000;
    634 : 10010111;
    635 : 10010110;
    636 : 10010101;
    637 : 10010011;
    638 : 10010010;
    639 : 10010001;
    63A : 10001111;
    63B : 10001110;
    63C : 10001101;
    63D : 10001100;
    63E : 10001011;
    63F : 10001010;
    640 : 10001001;
    641 : 10001010;
    642 : 10001100;
    643 : 10001101;
    644 : 10001110;
    645 : 10001111;
    646 : 10010001;
    647 : 10010010;
    648 : 10010100;
    649 : 10010101;
    64A : 10010000;
    64B : 01111111;
    64C : 01100100;
    64D : 01000111;
    64E : 00110111;
    64F : 00110001;
    650 : 00101011;
    651 : 01000100;
    652 : 10000010;
    653 : 10000000;
    654 : 01101111;
    655 : 01011001;
    656 : 01010110;
    657 : 01010110;
    658 : 01001011;
    659 : 01100000;
    65A : 01100110;
    65B : 01100110;
    65C : 01101010;
    65D : 01100110;
    65E : 01100110;
    65F : 01011110;
    660 : 01000101;
    661 : 00101111;
    662 : 00101011;
    663 : 00101110;
    664 : 00110101;
    665 : 00111100;
    666 : 00110101;
    667 : 00111110;
    668 : 01000000;
    669 : 00111010;
    66A : 00111011;
    66B : 00111001;
    66C : 00111001;
    66D : 00101101;
    66E : 00100001;
    66F : 00100001;
    670 : 00100101;
    671 : 00110100;
    672 : 00110110;
    673 : 01001011;
    674 : 01101000;
    675 : 01100100;
    676 : 01101000;
    677 : 01100111;
    678 : 01110111;
    679 : 01110111;
    67A : 01110111;
    67B : 01111110;
    67C : 10000101;
    67D : 10001001;
    67E : 10010000;
    67F : 10001001;
    680 : 01111000;
    681 : 01100001;
    682 : 01111101;
    683 : 01111111;
    684 : 01110001;
    685 : 01000111;
    686 : 01001000;
    687 : 01010011;
    688 : 01001010;
    689 : 00111011;
    68A : 01000001;
    68B : 00111111;
    68C : 01000110;
    68D : 01000110;
    68E : 01000001;
    68F : 00111110;
    690 : 00110111;
    691 : 00111010;
    692 : 00111110;
    693 : 01001010;
    694 : 01011101;
    695 : 01110101;
    696 : 10000101;
    697 : 10000110;
    698 : 10000111;
    699 : 10100010;
    69A : 10101011;
    69B : 10011010;
    69C : 10011111;
    69D : 10101000;
    69E : 10110000;
    69F : 10110010;
    6A0 : 10110110;
    6A1 : 10110101;
    6A2 : 10110101;
    6A3 : 10110101;
    6A4 : 10110101;
    6A5 : 10110110;
    6A6 : 10110110;
    6A7 : 10110101;
    6A8 : 10110101;
    6A9 : 10110101;
    6AA : 10110101;
    6AB : 10110100;
    6AC : 10110100;
    6AD : 10110100;
    6AE : 10110100;
    6AF : 10110011;
    6B0 : 10110011;
    6B1 : 10110011;
    6B2 : 10110011;
    6B3 : 10110011;
    6B4 : 10110010;
    6B5 : 10110001;
    6B6 : 10110001;
    6B7 : 10110000;
    6B8 : 10110000;
    6B9 : 10101111;
    6BA : 10101111;
    6BB : 10101110;
    6BC : 10101110;
    6BD : 10101101;
    6BE : 10101100;
    6BF : 10101100;
    6C0 : 10101011;
    6C1 : 10101011;
    6C2 : 10101010;
    6C3 : 10101001;
    6C4 : 10101000;
    6C5 : 10100111;
    6C6 : 10100111;
    6C7 : 10100101;
    6C8 : 10100100;
    6C9 : 10100100;
    6CA : 10100011;
    6CB : 10100010;
    6CC : 10100001;
    6CD : 10100000;
    6CE : 10011111;
    6CF : 10011101;
    6D0 : 10011100;
    6D1 : 10011011;
    6D2 : 10011010;
    6D3 : 10011001;
    6D4 : 10010111;
    6D5 : 10010111;
    6D6 : 10010110;
    6D7 : 10010101;
    6D8 : 10010011;
    6D9 : 10010010;
    6DA : 10010001;
    6DB : 10010000;
    6DC : 10001111;
    6DD : 10001101;
    6DE : 10001101;
    6DF : 10001011;
    6E0 : 10001010;
    6E1 : 10001011;
    6E2 : 10001101;
    6E3 : 10001110;
    6E4 : 10001111;
    6E5 : 10010000;
    6E6 : 10010001;
    6E7 : 10010000;
    6E8 : 10010001;
    6E9 : 10010001;
    6EA : 10000011;
    6EB : 01100100;
    6EC : 00111100;
    6ED : 00100101;
    6EE : 00100001;
    6EF : 00100101;
    6F0 : 00100010;
    6F1 : 01011110;
    6F2 : 10000011;
    6F3 : 01100010;
    6F4 : 01101101;
    6F5 : 01011000;
    6F6 : 01011001;
    6F7 : 01010011;
    6F8 : 01010001;
    6F9 : 01100001;
    6FA : 01100010;
    6FB : 01100110;
    6FC : 01100101;
    6FD : 01100010;
    6FE : 01011111;
    6FF : 01010001;
    700 : 00110101;
    701 : 00110001;
    702 : 01000010;
    703 : 01000101;
    704 : 01010010;
    705 : 01100101;
    706 : 01110001;
    707 : 01111011;
    708 : 01111001;
    709 : 01110000;
    70A : 01101010;
    70B : 01011100;
    70C : 01010010;
    70D : 01000110;
    70E : 00111100;
    70F : 00100100;
    710 : 00010111;
    711 : 00101000;
    712 : 00111011;
    713 : 01000001;
    714 : 01101110;
    715 : 01110001;
    716 : 01101010;
    717 : 01101110;
    718 : 01100100;
    719 : 01101000;
    71A : 01111111;
    71B : 01111110;
    71C : 10001001;
    71D : 10010111;
    71E : 10001010;
    71F : 01111110;
    720 : 01110110;
    721 : 01111111;
    722 : 10010011;
    723 : 01111111;
    724 : 01011011;
    725 : 01000111;
    726 : 01001110;
    727 : 01001110;
    728 : 00111001;
    729 : 00111100;
    72A : 00111101;
    72B : 00111101;
    72C : 00111111;
    72D : 01001010;
    72E : 01010001;
    72F : 01001000;
    730 : 01000011;
    731 : 00111000;
    732 : 00111100;
    733 : 01111000;
    734 : 10100000;
    735 : 10100110;
    736 : 10100011;
    737 : 10100000;
    738 : 10000101;
    739 : 10000000;
    73A : 01101010;
    73B : 01010101;
    73C : 01100110;
    73D : 10000010;
    73E : 10100110;
    73F : 10101111;
    740 : 10110000;
    741 : 10110001;
    742 : 10110011;
    743 : 10110101;
    744 : 10110101;
    745 : 10110101;
    746 : 10110110;
    747 : 10110110;
    748 : 10110110;
    749 : 10110110;
    74A : 10110110;
    74B : 10110110;
    74C : 10110101;
    74D : 10110101;
    74E : 10110101;
    74F : 10110101;
    750 : 10110100;
    751 : 10110100;
    752 : 10110100;
    753 : 10110011;
    754 : 10110011;
    755 : 10110010;
    756 : 10110010;
    757 : 10110010;
    758 : 10110001;
    759 : 10110001;
    75A : 10110000;
    75B : 10110000;
    75C : 10101111;
    75D : 10101111;
    75E : 10101110;
    75F : 10101101;
    760 : 10101100;
    761 : 10101100;
    762 : 10101011;
    763 : 10101010;
    764 : 10101010;
    765 : 10101001;
    766 : 10101000;
    767 : 10100111;
    768 : 10100110;
    769 : 10100101;
    76A : 10100100;
    76B : 10100011;
    76C : 10100010;
    76D : 10100001;
    76E : 10100000;
    76F : 10011111;
    770 : 10011110;
    771 : 10011101;
    772 : 10011011;
    773 : 10011011;
    774 : 10011010;
    775 : 10011001;
    776 : 10011000;
    777 : 10010111;
    778 : 10010101;
    779 : 10010100;
    77A : 10010011;
    77B : 10010010;
    77C : 10010001;
    77D : 10010000;
    77E : 10001110;
    77F : 10001101;
    780 : 10001011;
    781 : 10001100;
    782 : 10001101;
    783 : 10001111;
    784 : 10010000;
    785 : 10010010;
    786 : 10001111;
    787 : 10001100;
    788 : 10001000;
    789 : 01110111;
    78A : 01100100;
    78B : 01000001;
    78C : 00101000;
    78D : 00100011;
    78E : 00011110;
    78F : 00100011;
    790 : 00100101;
    791 : 01101110;
    792 : 10000001;
    793 : 01010000;
    794 : 01110000;
    795 : 01010011;
    796 : 01010011;
    797 : 01001100;
    798 : 01010010;
    799 : 01011101;
    79A : 01010101;
    79B : 01011111;
    79C : 01100101;
    79D : 01100111;
    79E : 01010100;
    79F : 00111010;
    7A0 : 00110101;
    7A1 : 01001110;
    7A2 : 01101101;
    7A3 : 10000110;
    7A4 : 10001010;
    7A5 : 10000110;
    7A6 : 01111000;
    7A7 : 01110000;
    7A8 : 01101111;
    7A9 : 01101111;
    7AA : 01111011;
    7AB : 10001000;
    7AC : 10001000;
    7AD : 01110001;
    7AE : 01010010;
    7AF : 01000101;
    7B0 : 00100000;
    7B1 : 00011101;
    7B2 : 01000000;
    7B3 : 00111110;
    7B4 : 01101001;
    7B5 : 01110010;
    7B6 : 01101101;
    7B7 : 01101001;
    7B8 : 01010100;
    7B9 : 01011011;
    7BA : 01100111;
    7BB : 01100010;
    7BC : 01101001;
    7BD : 01111010;
    7BE : 01111101;
    7BF : 01111011;
    7C0 : 01111001;
    7C1 : 10010000;
    7C2 : 01111100;
    7C3 : 01011000;
    7C4 : 01001101;
    7C5 : 01000111;
    7C6 : 01001101;
    7C7 : 01000001;
    7C8 : 00111001;
    7C9 : 00111110;
    7CA : 00111111;
    7CB : 01000000;
    7CC : 00111101;
    7CD : 00111000;
    7CE : 00111011;
    7CF : 00111100;
    7D0 : 00110010;
    7D1 : 01000101;
    7D2 : 10001010;
    7D3 : 10100101;
    7D4 : 10010100;
    7D5 : 01101101;
    7D6 : 10010001;
    7D7 : 01111100;
    7D8 : 01100111;
    7D9 : 01100011;
    7DA : 01010100;
    7DB : 01010100;
    7DC : 01011000;
    7DD : 01010101;
    7DE : 01111010;
    7DF : 10101011;
    7E0 : 10110010;
    7E1 : 10110010;
    7E2 : 10101110;
    7E3 : 10110000;
    7E4 : 10110011;
    7E5 : 10110100;
    7E6 : 10110101;
    7E7 : 10110111;
    7E8 : 10110111;
    7E9 : 10110110;
    7EA : 10110110;
    7EB : 10110110;
    7EC : 10110110;
    7ED : 10110110;
    7EE : 10110110;
    7EF : 10110110;
    7F0 : 10110101;
    7F1 : 10110101;
    7F2 : 10110101;
    7F3 : 10110100;
    7F4 : 10110100;
    7F5 : 10110100;
    7F6 : 10110011;
    7F7 : 10110010;
    7F8 : 10110010;
    7F9 : 10110010;
    7FA : 10110001;
    7FB : 10110001;
    7FC : 10110000;
    7FD : 10110000;
    7FE : 10101111;
    7FF : 10101110;
    800 : 10101110;
    801 : 10101101;
    802 : 10101101;
    803 : 10101100;
    804 : 10101011;
    805 : 10101010;
    806 : 10101010;
    807 : 10101001;
    808 : 10101000;
    809 : 10100111;
    80A : 10100110;
    80B : 10100101;
    80C : 10100100;
    80D : 10100011;
    80E : 10100010;
    80F : 10100001;
    810 : 10100000;
    811 : 10011111;
    812 : 10011110;
    813 : 10011101;
    814 : 10011100;
    815 : 10011011;
    816 : 10011010;
    817 : 10011001;
    818 : 10010111;
    819 : 10010110;
    81A : 10010101;
    81B : 10010100;
    81C : 10010011;
    81D : 10010010;
    81E : 10010001;
    81F : 10001111;
    820 : 10001100;
    821 : 10001101;
    822 : 10001111;
    823 : 10010001;
    824 : 10010011;
    825 : 10010110;
    826 : 10001011;
    827 : 01110100;
    828 : 01100100;
    829 : 01000011;
    82A : 00110001;
    82B : 00101100;
    82C : 00100101;
    82D : 00100000;
    82E : 00100000;
    82F : 00011100;
    830 : 00101000;
    831 : 01101101;
    832 : 01111100;
    833 : 01111101;
    834 : 01101011;
    835 : 01001111;
    836 : 01010000;
    837 : 01001001;
    838 : 01010001;
    839 : 01010111;
    83A : 01001100;
    83B : 01011001;
    83C : 01100111;
    83D : 01011010;
    83E : 01000100;
    83F : 00111110;
    840 : 01001111;
    841 : 10001000;
    842 : 10001000;
    843 : 01101000;
    844 : 01001111;
    845 : 01000000;
    846 : 00110010;
    847 : 00110001;
    848 : 00101101;
    849 : 00100010;
    84A : 00100110;
    84B : 00111001;
    84C : 01100010;
    84D : 10001111;
    84E : 10001011;
    84F : 01100000;
    850 : 01001001;
    851 : 00110010;
    852 : 00111100;
    853 : 00110111;
    854 : 01100101;
    855 : 01111000;
    856 : 01101000;
    857 : 01011100;
    858 : 01001101;
    859 : 01001011;
    85A : 00111110;
    85B : 00110011;
    85C : 00110000;
    85D : 01011101;
    85E : 01111111;
    85F : 01100110;
    860 : 01110001;
    861 : 10000000;
    862 : 01001111;
    863 : 01001011;
    864 : 01001100;
    865 : 01001101;
    866 : 01001011;
    867 : 00111101;
    868 : 00111001;
    869 : 00110111;
    86A : 00110001;
    86B : 00110100;
    86C : 00101011;
    86D : 00100111;
    86E : 00110101;
    86F : 00101101;
    870 : 01000110;
    871 : 10001111;
    872 : 10100010;
    873 : 10100010;
    874 : 10010000;
    875 : 10000000;
    876 : 01111011;
    877 : 01100010;
    878 : 01101101;
    879 : 01101010;
    87A : 01011110;
    87B : 01011110;
    87C : 01010101;
    87D : 01000101;
    87E : 01000101;
    87F : 01100001;
    880 : 10000100;
    881 : 10011110;
    882 : 10101100;
    883 : 10101100;
    884 : 10101110;
    885 : 10110000;
    886 : 10101100;
    887 : 10110010;
    888 : 10110111;
    889 : 10110111;
    88A : 10110111;
    88B : 10110110;
    88C : 10110110;
    88D : 10110110;
    88E : 10110111;
    88F : 10110110;
    890 : 10110111;
    891 : 10110111;
    892 : 10110110;
    893 : 10110110;
    894 : 10110101;
    895 : 10110101;
    896 : 10110101;
    897 : 10110100;
    898 : 10110100;
    899 : 10110011;
    89A : 10110011;
    89B : 10110010;
    89C : 10110010;
    89D : 10110001;
    89E : 10110001;
    89F : 10110000;
    8A0 : 10101111;
    8A1 : 10101111;
    8A2 : 10101110;
    8A3 : 10101110;
    8A4 : 10101101;
    8A5 : 10101100;
    8A6 : 10101100;
    8A7 : 10101011;
    8A8 : 10101010;
    8A9 : 10101001;
    8AA : 10101000;
    8AB : 10100111;
    8AC : 10100110;
    8AD : 10100101;
    8AE : 10100100;
    8AF : 10100010;
    8B0 : 10100010;
    8B1 : 10100001;
    8B2 : 10100000;
    8B3 : 10011111;
    8B4 : 10011110;
    8B5 : 10011101;
    8B6 : 10011100;
    8B7 : 10011011;
    8B8 : 10011010;
    8B9 : 10011000;
    8BA : 10010111;
    8BB : 10010110;
    8BC : 10010101;
    8BD : 10010100;
    8BE : 10010010;
    8BF : 10010001;
    8C0 : 10001110;
    8C1 : 10010000;
    8C2 : 10010010;
    8C3 : 10010110;
    8C4 : 10010111;
    8C5 : 10001110;
    8C6 : 01011111;
    8C7 : 01000101;
    8C8 : 00111111;
    8C9 : 00110010;
    8CA : 00110100;
    8CB : 00110000;
    8CC : 00100100;
    8CD : 00011111;
    8CE : 00011101;
    8CF : 00001111;
    8D0 : 00101001;
    8D1 : 01111000;
    8D2 : 01110010;
    8D3 : 01101101;
    8D4 : 01110010;
    8D5 : 01010000;
    8D6 : 01001101;
    8D7 : 01001011;
    8D8 : 01010011;
    8D9 : 01010100;
    8DA : 01001100;
    8DB : 01011110;
    8DC : 01100100;
    8DD : 01001000;
    8DE : 00111001;
    8DF : 01011001;
    8E0 : 10001010;
    8E1 : 01101110;
    8E2 : 00110101;
    8E3 : 00110100;
    8E4 : 00110010;
    8E5 : 00110100;
    8E6 : 00110010;
    8E7 : 00101110;
    8E8 : 00100111;
    8E9 : 00100100;
    8EA : 00100010;
    8EB : 00011111;
    8EC : 00100110;
    8ED : 00111111;
    8EE : 10000100;
    8EF : 10001111;
    8F0 : 01011001;
    8F1 : 01000000;
    8F2 : 00111100;
    8F3 : 00111000;
    8F4 : 01101001;
    8F5 : 01111100;
    8F6 : 01101001;
    8F7 : 01010110;
    8F8 : 01000010;
    8F9 : 00111111;
    8FA : 00110001;
    8FB : 00101010;
    8FC : 00110101;
    8FD : 01101001;
    8FE : 01110100;
    8FF : 01100010;
    900 : 10000001;
    901 : 01010110;
    902 : 01001100;
    903 : 01001010;
    904 : 01001101;
    905 : 01010001;
    906 : 01000101;
    907 : 00111001;
    908 : 00110100;
    909 : 00110010;
    90A : 00101101;
    90B : 00110010;
    90C : 00101111;
    90D : 00100110;
    90E : 00100110;
    90F : 01000100;
    910 : 10010011;
    911 : 10100011;
    912 : 10010001;
    913 : 10001000;
    914 : 10011101;
    915 : 01111111;
    916 : 01100111;
    917 : 01111100;
    918 : 01110010;
    919 : 01011000;
    91A : 01100100;
    91B : 01101111;
    91C : 01010010;
    91D : 01001011;
    91E : 01001010;
    91F : 01000100;
    920 : 01000100;
    921 : 01011100;
    922 : 01110100;
    923 : 10001011;
    924 : 10010010;
    925 : 10100110;
    926 : 10110101;
    927 : 10110010;
    928 : 10110110;
    929 : 10111001;
    92A : 10111001;
    92B : 10110111;
    92C : 10110111;
    92D : 10111000;
    92E : 10111000;
    92F : 10111000;
    930 : 10111000;
    931 : 10111000;
    932 : 10110111;
    933 : 10110111;
    934 : 10110111;
    935 : 10110110;
    936 : 10110110;
    937 : 10110101;
    938 : 10110101;
    939 : 10110100;
    93A : 10110100;
    93B : 10110100;
    93C : 10110011;
    93D : 10110011;
    93E : 10110010;
    93F : 10110010;
    940 : 10110001;
    941 : 10110001;
    942 : 10110000;
    943 : 10101111;
    944 : 10101111;
    945 : 10101111;
    946 : 10101110;
    947 : 10101101;
    948 : 10101100;
    949 : 10101011;
    94A : 10101010;
    94B : 10101010;
    94C : 10101001;
    94D : 10101000;
    94E : 10100111;
    94F : 10100110;
    950 : 10100101;
    951 : 10100100;
    952 : 10100010;
    953 : 10100001;
    954 : 10100000;
    955 : 10011111;
    956 : 10011111;
    957 : 10011110;
    958 : 10011100;
    959 : 10011011;
    95A : 10011010;
    95B : 10011001;
    95C : 10011000;
    95D : 10010110;
    95E : 10010101;
    95F : 10010101;
    960 : 10010000;
    961 : 10010001;
    962 : 10010001;
    963 : 10001100;
    964 : 01111111;
    965 : 01011101;
    966 : 00111110;
    967 : 01000011;
    968 : 00111011;
    969 : 00110100;
    96A : 00101111;
    96B : 00100111;
    96C : 00100000;
    96D : 00011101;
    96E : 00010101;
    96F : 00001111;
    970 : 00110000;
    971 : 10000011;
    972 : 01110001;
    973 : 01010111;
    974 : 01101111;
    975 : 01010110;
    976 : 01001101;
    977 : 01001110;
    978 : 01010101;
    979 : 01010110;
    97A : 01010011;
    97B : 01100100;
    97C : 01011010;
    97D : 01000110;
    97E : 01011100;
    97F : 10001000;
    980 : 01100000;
    981 : 00101100;
    982 : 00101011;
    983 : 00110100;
    984 : 00100111;
    985 : 00101011;
    986 : 00101100;
    987 : 00101100;
    988 : 00100111;
    989 : 00100101;
    98A : 00100111;
    98B : 00100111;
    98C : 00101111;
    98D : 00101000;
    98E : 01010101;
    98F : 10100001;
    990 : 01111010;
    991 : 01001101;
    992 : 01001101;
    993 : 01001000;
    994 : 01101110;
    995 : 01111000;
    996 : 01100011;
    997 : 01000101;
    998 : 00111010;
    999 : 00111101;
    99A : 00110011;
    99B : 00101001;
    99C : 00111000;
    99D : 01101010;
    99E : 01110001;
    99F : 01110110;
    9A0 : 01100011;
    9A1 : 01001101;
    9A2 : 01001110;
    9A3 : 01001000;
    9A4 : 01001101;
    9A5 : 01000100;
    9A6 : 00111101;
    9A7 : 00111000;
    9A8 : 00110010;
    9A9 : 00101001;
    9AA : 00101001;
    9AB : 00100111;
    9AC : 00100011;
    9AD : 00100010;
    9AE : 00110001;
    9AF : 10001000;
    9B0 : 10011100;
    9B1 : 10001001;
    9B2 : 01101001;
    9B3 : 01110110;
    9B4 : 01110110;
    9B5 : 01101101;
    9B6 : 01110100;
    9B7 : 01100111;
    9B8 : 01010111;
    9B9 : 01100101;
    9BA : 01111100;
    9BB : 01110010;
    9BC : 01101110;
    9BD : 01100110;
    9BE : 01010101;
    9BF : 01010011;
    9C0 : 01001111;
    9C1 : 01001001;
    9C2 : 01001110;
    9C3 : 01000000;
    9C4 : 01000011;
    9C5 : 01010011;
    9C6 : 10000000;
    9C7 : 10100000;
    9C8 : 10101111;
    9C9 : 10111001;
    9CA : 10111001;
    9CB : 10111010;
    9CC : 10111001;
    9CD : 10111001;
    9CE : 10111010;
    9CF : 10111010;
    9D0 : 10111010;
    9D1 : 10111010;
    9D2 : 10111010;
    9D3 : 10111001;
    9D4 : 10111001;
    9D5 : 10111001;
    9D6 : 10111001;
    9D7 : 10111000;
    9D8 : 10111000;
    9D9 : 10110111;
    9DA : 10110111;
    9DB : 10110111;
    9DC : 10110110;
    9DD : 10110101;
    9DE : 10110100;
    9DF : 10110100;
    9E0 : 10110100;
    9E1 : 10110011;
    9E2 : 10110010;
    9E3 : 10110010;
    9E4 : 10110010;
    9E5 : 10110001;
    9E6 : 10110001;
    9E7 : 10101111;
    9E8 : 10101111;
    9E9 : 10101101;
    9EA : 10101101;
    9EB : 10101100;
    9EC : 10101011;
    9ED : 10101010;
    9EE : 10101001;
    9EF : 10101000;
    9F0 : 10100111;
    9F1 : 10100110;
    9F2 : 10100110;
    9F3 : 10100100;
    9F4 : 10100011;
    9F5 : 10100010;
    9F6 : 10100010;
    9F7 : 10100000;
    9F8 : 10011111;
    9F9 : 10011110;
    9FA : 10011101;
    9FB : 10011101;
    9FC : 10011011;
    9FD : 10011011;
    9FE : 10011001;
    9FF : 10011001;
    A00 : 10010010;
    A01 : 10001110;
    A02 : 10001000;
    A03 : 10000000;
    A04 : 01110100;
    A05 : 01011001;
    A06 : 00111101;
    A07 : 01000001;
    A08 : 00110110;
    A09 : 00101011;
    A0A : 00100110;
    A0B : 00100100;
    A0C : 00011010;
    A0D : 00010101;
    A0E : 00011000;
    A0F : 00001101;
    A10 : 00110011;
    A11 : 10000100;
    A12 : 01110010;
    A13 : 01011111;
    A14 : 01100010;
    A15 : 01010000;
    A16 : 01001010;
    A17 : 01010001;
    A18 : 01010111;
    A19 : 01011100;
    A1A : 01011001;
    A1B : 01100010;
    A1C : 01001100;
    A1D : 01001001;
    A1E : 10000100;
    A1F : 01101010;
    A20 : 00101000;
    A21 : 00110011;
    A22 : 00101111;
    A23 : 00101110;
    A24 : 00100100;
    A25 : 00101100;
    A26 : 00110001;
    A27 : 00111000;
    A28 : 01000001;
    A29 : 00111001;
    A2A : 00111101;
    A2B : 00111010;
    A2C : 00111000;
    A2D : 00111100;
    A2E : 01010011;
    A2F : 10100001;
    A30 : 10011000;
    A31 : 01010111;
    A32 : 01001011;
    A33 : 01010110;
    A34 : 01110100;
    A35 : 01101111;
    A36 : 01011011;
    A37 : 00111111;
    A38 : 00111011;
    A39 : 00111010;
    A3A : 00101111;
    A3B : 00101001;
    A3C : 00111101;
    A3D : 01101010;
    A3E : 01101111;
    A3F : 01011110;
    A40 : 01001010;
    A41 : 01001101;
    A42 : 01001010;
    A43 : 01001011;
    A44 : 01000111;
    A45 : 01000010;
    A46 : 00111111;
    A47 : 00111100;
    A48 : 00110110;
    A49 : 00101100;
    A4A : 00110000;
    A4B : 00110010;
    A4C : 00101111;
    A4D : 00100110;
    A4E : 01110010;
    A4F : 10010001;
    A50 : 10001001;
    A51 : 01110111;
    A52 : 01110100;
    A53 : 01111001;
    A54 : 01110100;
    A55 : 01101010;
    A56 : 01011101;
    A57 : 01010100;
    A58 : 01100101;
    A59 : 01110101;
    A5A : 10000000;
    A5B : 01111000;
    A5C : 01111110;
    A5D : 01110000;
    A5E : 01101100;
    A5F : 01101011;
    A60 : 01001011;
    A61 : 01010001;
    A62 : 01001010;
    A63 : 00110111;
    A64 : 00111111;
    A65 : 00110111;
    A66 : 01000010;
    A67 : 01100001;
    A68 : 01110101;
    A69 : 10001010;
    A6A : 10101100;
    A6B : 10111000;
    A6C : 10111010;
    A6D : 10111011;
    A6E : 10111100;
    A6F : 10111011;
    A70 : 10111100;
    A71 : 10111100;
    A72 : 10111100;
    A73 : 10111100;
    A74 : 10111011;
    A75 : 10111011;
    A76 : 10111011;
    A77 : 10111011;
    A78 : 10111010;
    A79 : 10111001;
    A7A : 10111001;
    A7B : 10111001;
    A7C : 10111001;
    A7D : 10111000;
    A7E : 10110111;
    A7F : 10110111;
    A80 : 10110110;
    A81 : 10110110;
    A82 : 10110101;
    A83 : 10110101;
    A84 : 10110100;
    A85 : 10110100;
    A86 : 10110011;
    A87 : 10110011;
    A88 : 10110010;
    A89 : 10110001;
    A8A : 10110000;
    A8B : 10101111;
    A8C : 10101110;
    A8D : 10101110;
    A8E : 10101101;
    A8F : 10101011;
    A90 : 10101011;
    A91 : 10101010;
    A92 : 10101001;
    A93 : 10101000;
    A94 : 10100111;
    A95 : 10100110;
    A96 : 10100110;
    A97 : 10100100;
    A98 : 10100011;
    A99 : 10100010;
    A9A : 10100010;
    A9B : 10100001;
    A9C : 10011111;
    A9D : 10011110;
    A9E : 10011110;
    A9F : 10011100;
    AA0 : 01100100;
    AA1 : 01011000;
    AA2 : 10000101;
    AA3 : 01110101;
    AA4 : 01101110;
    AA5 : 01011101;
    AA6 : 00111111;
    AA7 : 01000100;
    AA8 : 00101110;
    AA9 : 00100110;
    AAA : 00100010;
    AAB : 00100000;
    AAC : 00010111;
    AAD : 00010110;
    AAE : 00011001;
    AAF : 00010011;
    AB0 : 00111000;
    AB1 : 10000001;
    AB2 : 01111000;
    AB3 : 01101000;
    AB4 : 01010011;
    AB5 : 01001101;
    AB6 : 01001000;
    AB7 : 01001011;
    AB8 : 01011010;
    AB9 : 01011101;
    ABA : 01011100;
    ABB : 01100001;
    ABC : 01001000;
    ABD : 01100000;
    ABE : 10000001;
    ABF : 00110011;
    AC0 : 00110101;
    AC1 : 00101100;
    AC2 : 00101011;
    AC3 : 00110000;
    AC4 : 00111101;
    AC5 : 00111010;
    AC6 : 00110010;
    AC7 : 00111100;
    AC8 : 01001001;
    AC9 : 01001110;
    ACA : 01000110;
    ACB : 01001101;
    ACC : 01000111;
    ACD : 01000100;
    ACE : 01100001;
    ACF : 10100011;
    AD0 : 10011101;
    AD1 : 01011101;
    AD2 : 01010000;
    AD3 : 01100001;
    AD4 : 01110101;
    AD5 : 01100110;
    AD6 : 01010111;
    AD7 : 01000000;
    AD8 : 00111010;
    AD9 : 01000011;
    ADA : 00111000;
    ADB : 00101100;
    ADC : 01001110;
    ADD : 01101110;
    ADE : 01100010;
    ADF : 01001000;
    AE0 : 01000111;
    AE1 : 01001011;
    AE2 : 01010010;
    AE3 : 01001110;
    AE4 : 01001010;
    AE5 : 01001011;
    AE6 : 00111101;
    AE7 : 01000100;
    AE8 : 00111110;
    AE9 : 00111000;
    AEA : 00111100;
    AEB : 01000010;
    AEC : 01000110;
    AED : 01100110;
    AEE : 10001101;
    AEF : 10000011;
    AF0 : 01111010;
    AF1 : 01100110;
    AF2 : 01101010;
    AF3 : 01101111;
    AF4 : 01101011;
    AF5 : 01010010;
    AF6 : 01010101;
    AF7 : 01100100;
    AF8 : 01101000;
    AF9 : 01110100;
    AFA : 01110100;
    AFB : 01111000;
    AFC : 10000010;
    AFD : 10000001;
    AFE : 10000111;
    AFF : 01101101;
    B00 : 01011110;
    B01 : 01011111;
    B02 : 00111111;
    B03 : 00111011;
    B04 : 00111100;
    B05 : 00110111;
    B06 : 01010010;
    B07 : 01100010;
    B08 : 01100001;
    B09 : 01010010;
    B0A : 01101001;
    B0B : 10011011;
    B0C : 10110101;
    B0D : 10111010;
    B0E : 10111101;
    B0F : 10111111;
    B10 : 10111111;
    B11 : 10111111;
    B12 : 10111110;
    B13 : 10111110;
    B14 : 10111110;
    B15 : 10111110;
    B16 : 10111101;
    B17 : 10111101;
    B18 : 10111101;
    B19 : 10111100;
    B1A : 10111100;
    B1B : 10111100;
    B1C : 10111011;
    B1D : 10111011;
    B1E : 10111011;
    B1F : 10111010;
    B20 : 10111001;
    B21 : 10111000;
    B22 : 10111000;
    B23 : 10110111;
    B24 : 10111000;
    B25 : 10110111;
    B26 : 10110110;
    B27 : 10110110;
    B28 : 10110110;
    B29 : 10110101;
    B2A : 10110100;
    B2B : 10110011;
    B2C : 10110010;
    B2D : 10110010;
    B2E : 10110001;
    B2F : 10110000;
    B30 : 10101111;
    B31 : 10101110;
    B32 : 10101101;
    B33 : 10101101;
    B34 : 10101100;
    B35 : 10101011;
    B36 : 10101010;
    B37 : 10101001;
    B38 : 10101000;
    B39 : 10100111;
    B3A : 10100110;
    B3B : 10100101;
    B3C : 10100100;
    B3D : 10100010;
    B3E : 10100001;
    B3F : 10100001;
    B40 : 00100001;
    B41 : 01001011;
    B42 : 10000110;
    B43 : 01110000;
    B44 : 01101110;
    B45 : 01011101;
    B46 : 00111011;
    B47 : 01000101;
    B48 : 00101101;
    B49 : 00100011;
    B4A : 00011110;
    B4B : 00011011;
    B4C : 00010101;
    B4D : 00011100;
    B4E : 00011100;
    B4F : 00011010;
    B50 : 00110100;
    B51 : 01111110;
    B52 : 01110110;
    B53 : 01100000;
    B54 : 01010110;
    B55 : 01010011;
    B56 : 01001011;
    B57 : 01001001;
    B58 : 01011110;
    B59 : 01100001;
    B5A : 01100001;
    B5B : 01011100;
    B5C : 01010000;
    B5D : 01111100;
    B5E : 01010110;
    B5F : 00100101;
    B60 : 01000000;
    B61 : 00110110;
    B62 : 00110001;
    B63 : 00110011;
    B64 : 00111100;
    B65 : 00111101;
    B66 : 00111100;
    B67 : 00111000;
    B68 : 01001000;
    B69 : 01010101;
    B6A : 01011010;
    B6B : 01010011;
    B6C : 01010000;
    B6D : 01001000;
    B6E : 01110110;
    B6F : 10011111;
    B70 : 10010111;
    B71 : 01100110;
    B72 : 01010101;
    B73 : 01011101;
    B74 : 01010001;
    B75 : 01001011;
    B76 : 01011001;
    B77 : 01010011;
    B78 : 01000111;
    B79 : 00110111;
    B7A : 00111111;
    B7B : 00110110;
    B7C : 01011010;
    B7D : 01100110;
    B7E : 01001000;
    B7F : 01000101;
    B80 : 01001011;
    B81 : 01010101;
    B82 : 01010000;
    B83 : 01000110;
    B84 : 01001101;
    B85 : 00111101;
    B86 : 01001000;
    B87 : 01010000;
    B88 : 01001001;
    B89 : 01000100;
    B8A : 01010000;
    B8B : 01011010;
    B8C : 01100111;
    B8D : 10000011;
    B8E : 01111010;
    B8F : 01110001;
    B90 : 01010100;
    B91 : 01010111;
    B92 : 01011100;
    B93 : 01011100;
    B94 : 01010011;
    B95 : 01001100;
    B96 : 01010100;
    B97 : 01011000;
    B98 : 01011010;
    B99 : 01100010;
    B9A : 01101011;
    B9B : 01111111;
    B9C : 10001000;
    B9D : 10010011;
    B9E : 10001001;
    B9F : 01111010;
    BA0 : 01110011;
    BA1 : 01011000;
    BA2 : 01001001;
    BA3 : 01001010;
    BA4 : 01000001;
    BA5 : 01001010;
    BA6 : 01100011;
    BA7 : 01100010;
    BA8 : 01100101;
    BA9 : 01001010;
    BAA : 01001000;
    BAB : 01100000;
    BAC : 10001011;
    BAD : 10111011;
    BAE : 10111101;
    BAF : 11000000;
    BB0 : 11000010;
    BB1 : 11000010;
    BB2 : 11000010;
    BB3 : 11000010;
    BB4 : 11000001;
    BB5 : 11000001;
    BB6 : 11000001;
    BB7 : 11000000;
    BB8 : 11000001;
    BB9 : 11000000;
    BBA : 11000000;
    BBB : 10111111;
    BBC : 10111111;
    BBD : 10111111;
    BBE : 10111110;
    BBF : 10111110;
    BC0 : 10111110;
    BC1 : 10111101;
    BC2 : 10111101;
    BC3 : 10111100;
    BC4 : 10111011;
    BC5 : 10111011;
    BC6 : 10111010;
    BC7 : 10111010;
    BC8 : 10111001;
    BC9 : 10111001;
    BCA : 10111000;
    BCB : 10110111;
    BCC : 10110110;
    BCD : 10110101;
    BCE : 10110101;
    BCF : 10110100;
    BD0 : 10110011;
    BD1 : 10110010;
    BD2 : 10110001;
    BD3 : 10110000;
    BD4 : 10101111;
    BD5 : 10101111;
    BD6 : 10101110;
    BD7 : 10101101;
    BD8 : 10101100;
    BD9 : 10101011;
    BDA : 10101010;
    BDB : 10101001;
    BDC : 10101000;
    BDD : 10100111;
    BDE : 10100101;
    BDF : 10100100;
    BE0 : 00011010;
    BE1 : 01010100;
    BE2 : 10001001;
    BE3 : 01111000;
    BE4 : 01110100;
    BE5 : 01100010;
    BE6 : 00111011;
    BE7 : 01000011;
    BE8 : 00110010;
    BE9 : 00100011;
    BEA : 00011100;
    BEB : 00011011;
    BEC : 00011101;
    BED : 00011011;
    BEE : 00011010;
    BEF : 00011110;
    BF0 : 00111010;
    BF1 : 01111010;
    BF2 : 01101101;
    BF3 : 01011101;
    BF4 : 01100010;
    BF5 : 01010000;
    BF6 : 01010010;
    BF7 : 01011100;
    BF8 : 01101001;
    BF9 : 01101001;
    BFA : 01101001;
    BFB : 01011011;
    BFC : 01001111;
    BFD : 01111101;
    BFE : 00111000;
    BFF : 00101001;
    C00 : 00111001;
    C01 : 00111010;
    C02 : 00101101;
    C03 : 00111100;
    C04 : 01000011;
    C05 : 01000100;
    C06 : 01001000;
    C07 : 01000100;
    C08 : 01000010;
    C09 : 01010100;
    C0A : 01100100;
    C0B : 01100110;
    C0C : 01100101;
    C0D : 01101001;
    C0E : 10001000;
    C0F : 10010110;
    C10 : 10010010;
    C11 : 01100101;
    C12 : 01001101;
    C13 : 01001111;
    C14 : 01000011;
    C15 : 01000010;
    C16 : 01001011;
    C17 : 01001101;
    C18 : 00111011;
    C19 : 00110101;
    C1A : 00111001;
    C1B : 00111110;
    C1C : 01011000;
    C1D : 01010000;
    C1E : 01000010;
    C1F : 00111101;
    C20 : 01001101;
    C21 : 01011110;
    C22 : 01010010;
    C23 : 01000101;
    C24 : 01000101;
    C25 : 00111111;
    C26 : 01001111;
    C27 : 01001111;
    C28 : 01010111;
    C29 : 01100101;
    C2A : 01110100;
    C2B : 01111000;
    C2C : 10000000;
    C2D : 01111000;
    C2E : 01101100;
    C2F : 01100000;
    C30 : 01011001;
    C31 : 01001011;
    C32 : 01001011;
    C33 : 01010001;
    C34 : 01001001;
    C35 : 01010101;
    C36 : 01010001;
    C37 : 01000111;
    C38 : 01001100;
    C39 : 01011011;
    C3A : 01100101;
    C3B : 01101100;
    C3C : 01111011;
    C3D : 10000100;
    C3E : 10000001;
    C3F : 01111000;
    C40 : 01100110;
    C41 : 01100011;
    C42 : 01011101;
    C43 : 01010100;
    C44 : 01001111;
    C45 : 01110001;
    C46 : 01101011;
    C47 : 01101100;
    C48 : 01011101;
    C49 : 01001001;
    C4A : 01010001;
    C4B : 01010110;
    C4C : 01011110;
    C4D : 10001011;
    C4E : 10111101;
    C4F : 11000010;
    C50 : 11000011;
    C51 : 11000100;
    C52 : 11000100;
    C53 : 11000100;
    C54 : 11000100;
    C55 : 11000100;
    C56 : 11000100;
    C57 : 11000011;
    C58 : 11000011;
    C59 : 11000011;
    C5A : 11000011;
    C5B : 11000010;
    C5C : 11000010;
    C5D : 11000010;
    C5E : 11000001;
    C5F : 11000001;
    C60 : 11000000;
    C61 : 11000000;
    C62 : 11000000;
    C63 : 10111111;
    C64 : 10111111;
    C65 : 10111111;
    C66 : 10111110;
    C67 : 10111110;
    C68 : 10111101;
    C69 : 10111101;
    C6A : 10111100;
    C6B : 10111011;
    C6C : 10111010;
    C6D : 10111010;
    C6E : 10111001;
    C6F : 10111000;
    C70 : 10110111;
    C71 : 10110110;
    C72 : 10110101;
    C73 : 10110100;
    C74 : 10110011;
    C75 : 10110010;
    C76 : 10110010;
    C77 : 10110000;
    C78 : 10110000;
    C79 : 10101111;
    C7A : 10101110;
    C7B : 10101101;
    C7C : 10101100;
    C7D : 10101011;
    C7E : 10101010;
    C7F : 10101001;
    C80 : 00010110;
    C81 : 01011100;
    C82 : 10001001;
    C83 : 01111000;
    C84 : 01110100;
    C85 : 01100110;
    C86 : 00111101;
    C87 : 00111100;
    C88 : 00110111;
    C89 : 00100100;
    C8A : 00011011;
    C8B : 00011100;
    C8C : 00011010;
    C8D : 00011110;
    C8E : 00101010;
    C8F : 00110001;
    C90 : 01001110;
    C91 : 01101111;
    C92 : 01101001;
    C93 : 01101101;
    C94 : 01101111;
    C95 : 01011101;
    C96 : 01100011;
    C97 : 01110100;
    C98 : 01110010;
    C99 : 01101111;
    C9A : 01100110;
    C9B : 01010110;
    C9C : 01011111;
    C9D : 01111010;
    C9E : 00110000;
    C9F : 00110011;
    CA0 : 00110111;
    CA1 : 01000010;
    CA2 : 00110100;
    CA3 : 00111000;
    CA4 : 01001000;
    CA5 : 01001100;
    CA6 : 01001100;
    CA7 : 01010000;
    CA8 : 01011101;
    CA9 : 01110001;
    CAA : 01111110;
    CAB : 10000100;
    CAC : 01111101;
    CAD : 01110110;
    CAE : 01110110;
    CAF : 10000001;
    CB0 : 01111101;
    CB1 : 01100000;
    CB2 : 01010110;
    CB3 : 01001100;
    CB4 : 00111111;
    CB5 : 01000101;
    CB6 : 01010001;
    CB7 : 00111111;
    CB8 : 00111110;
    CB9 : 00110100;
    CBA : 00110101;
    CBB : 00111111;
    CBC : 01010010;
    CBD : 01001011;
    CBE : 01000000;
    CBF : 01000100;
    CC0 : 01010000;
    CC1 : 01010100;
    CC2 : 01000111;
    CC3 : 01001000;
    CC4 : 01001111;
    CC5 : 01001100;
    CC6 : 01011001;
    CC7 : 01101110;
    CC8 : 01111010;
    CC9 : 01110110;
    CCA : 01110001;
    CCB : 01110100;
    CCC : 01111100;
    CCD : 01111110;
    CCE : 01110111;
    CCF : 01011001;
    CD0 : 00111001;
    CD1 : 01000010;
    CD2 : 01000010;
    CD3 : 01000111;
    CD4 : 01010110;
    CD5 : 01010001;
    CD6 : 01000110;
    CD7 : 00111110;
    CD8 : 01001010;
    CD9 : 01001110;
    CDA : 01010100;
    CDB : 01011101;
    CDC : 01100111;
    CDD : 01101010;
    CDE : 01110100;
    CDF : 01110101;
    CE0 : 01110111;
    CE1 : 01101100;
    CE2 : 01100111;
    CE3 : 01011011;
    CE4 : 01110110;
    CE5 : 01111000;
    CE6 : 01101110;
    CE7 : 01110011;
    CE8 : 01001111;
    CE9 : 01000111;
    CEA : 01010001;
    CEB : 01010001;
    CEC : 01100000;
    CED : 01100111;
    CEE : 10001101;
    CEF : 10111101;
    CF0 : 11000100;
    CF1 : 11000110;
    CF2 : 11000110;
    CF3 : 11000110;
    CF4 : 11000110;
    CF5 : 11000110;
    CF6 : 11000110;
    CF7 : 11000110;
    CF8 : 11000110;
    CF9 : 11000101;
    CFA : 11000101;
    CFB : 11000101;
    CFC : 11000101;
    CFD : 11000100;
    CFE : 11000100;
    CFF : 11000100;
    D00 : 11000011;
    D01 : 11000011;
    D02 : 11000011;
    D03 : 11000011;
    D04 : 11000010;
    D05 : 11000010;
    D06 : 11000001;
    D07 : 11000000;
    D08 : 11000000;
    D09 : 10111111;
    D0A : 10111111;
    D0B : 10111111;
    D0C : 10111101;
    D0D : 10111100;
    D0E : 10111100;
    D0F : 10111011;
    D10 : 10111011;
    D11 : 10111010;
    D12 : 10111001;
    D13 : 10111000;
    D14 : 10110111;
    D15 : 10110110;
    D16 : 10110101;
    D17 : 10110100;
    D18 : 10110100;
    D19 : 10110011;
    D1A : 10110010;
    D1B : 10110000;
    D1C : 10110000;
    D1D : 10101111;
    D1E : 10101111;
    D1F : 10101110;
    D20 : 00011011;
    D21 : 01011101;
    D22 : 10000111;
    D23 : 01110110;
    D24 : 01100100;
    D25 : 01101001;
    D26 : 01000101;
    D27 : 00111001;
    D28 : 00111001;
    D29 : 00100110;
    D2A : 00011001;
    D2B : 00011011;
    D2C : 00100100;
    D2D : 00101110;
    D2E : 00110110;
    D2F : 00111100;
    D30 : 01000011;
    D31 : 01010101;
    D32 : 01100000;
    D33 : 01100011;
    D34 : 01101000;
    D35 : 01110100;
    D36 : 01110000;
    D37 : 01110111;
    D38 : 01111111;
    D39 : 01101110;
    D3A : 01010011;
    D3B : 01001110;
    D3C : 01100111;
    D3D : 01110101;
    D3E : 00110110;
    D3F : 00110011;
    D40 : 00111000;
    D41 : 01000110;
    D42 : 01000110;
    D43 : 00111101;
    D44 : 01000100;
    D45 : 01010110;
    D46 : 01011010;
    D47 : 01101111;
    D48 : 10001000;
    D49 : 10001110;
    D4A : 10000110;
    D4B : 01101100;
    D4C : 01011110;
    D4D : 01011100;
    D4E : 01011111;
    D4F : 01100101;
    D50 : 01101100;
    D51 : 01101110;
    D52 : 01101110;
    D53 : 01101001;
    D54 : 01100010;
    D55 : 01001010;
    D56 : 01000110;
    D57 : 01000101;
    D58 : 00110111;
    D59 : 00111101;
    D5A : 00111000;
    D5B : 00110110;
    D5C : 01001001;
    D5D : 01001101;
    D5E : 01000101;
    D5F : 01001000;
    D60 : 01001001;
    D61 : 01001010;
    D62 : 01000100;
    D63 : 01001000;
    D64 : 00111111;
    D65 : 01100001;
    D66 : 01110011;
    D67 : 01110110;
    D68 : 01110100;
    D69 : 01101010;
    D6A : 01101001;
    D6B : 10000101;
    D6C : 10100011;
    D6D : 10101011;
    D6E : 10101011;
    D6F : 10100001;
    D70 : 01011110;
    D71 : 00111100;
    D72 : 01011000;
    D73 : 01001110;
    D74 : 01010011;
    D75 : 01000011;
    D76 : 01000000;
    D77 : 01000000;
    D78 : 01000001;
    D79 : 01000101;
    D7A : 01001111;
    D7B : 01001110;
    D7C : 01010000;
    D7D : 01010111;
    D7E : 01100111;
    D7F : 01111011;
    D80 : 01110001;
    D81 : 01110101;
    D82 : 01100111;
    D83 : 01110000;
    D84 : 10000111;
    D85 : 01111100;
    D86 : 10001000;
    D87 : 01110001;
    D88 : 01001101;
    D89 : 01001111;
    D8A : 01001111;
    D8B : 01011101;
    D8C : 01100000;
    D8D : 01100011;
    D8E : 01110110;
    D8F : 10010101;
    D90 : 10111101;
    D91 : 11001000;
    D92 : 11001000;
    D93 : 11001001;
    D94 : 11001000;
    D95 : 11001000;
    D96 : 11001000;
    D97 : 11001000;
    D98 : 11000111;
    D99 : 11001000;
    D9A : 11000111;
    D9B : 11000111;
    D9C : 11000111;
    D9D : 11000110;
    D9E : 11000110;
    D9F : 11000110;
    DA0 : 11000110;
    DA1 : 11000101;
    DA2 : 11000101;
    DA3 : 11000101;
    DA4 : 11000101;
    DA5 : 11000100;
    DA6 : 11000100;
    DA7 : 11000011;
    DA8 : 11000011;
    DA9 : 11000010;
    DAA : 11000010;
    DAB : 11000010;
    DAC : 11000001;
    DAD : 11000000;
    DAE : 10111111;
    DAF : 10111110;
    DB0 : 10111101;
    DB1 : 10111101;
    DB2 : 10111100;
    DB3 : 10111010;
    DB4 : 10111010;
    DB5 : 10111000;
    DB6 : 10111001;
    DB7 : 10110111;
    DB8 : 10110110;
    DB9 : 10110110;
    DBA : 10110100;
    DBB : 10110011;
    DBC : 10110011;
    DBD : 10110010;
    DBE : 10110000;
    DBF : 10110000;
    DC0 : 00010101;
    DC1 : 01011000;
    DC2 : 10000110;
    DC3 : 01110110;
    DC4 : 01101000;
    DC5 : 01101001;
    DC6 : 01000011;
    DC7 : 00110111;
    DC8 : 00110111;
    DC9 : 00101011;
    DCA : 00011110;
    DCB : 00101111;
    DCC : 00110110;
    DCD : 00111010;
    DCE : 00111110;
    DCF : 00111101;
    DD0 : 01000101;
    DD1 : 01000100;
    DD2 : 01000101;
    DD3 : 01001001;
    DD4 : 01001110;
    DD5 : 01010101;
    DD6 : 01011110;
    DD7 : 01011001;
    DD8 : 01001101;
    DD9 : 01000010;
    DDA : 00111011;
    DDB : 01001101;
    DDC : 01100101;
    DDD : 01101111;
    DDE : 00111011;
    DDF : 00111111;
    DE0 : 00110001;
    DE1 : 01000110;
    DE2 : 01010101;
    DE3 : 01010010;
    DE4 : 01010110;
    DE5 : 01100100;
    DE6 : 10000011;
    DE7 : 10001111;
    DE8 : 10001100;
    DE9 : 01110101;
    DEA : 01010111;
    DEB : 01010000;
    DEC : 01010111;
    DED : 01011000;
    DEE : 01010110;
    DEF : 01010110;
    DF0 : 01010101;
    DF1 : 01011110;
    DF2 : 01100110;
    DF3 : 01101001;
    DF4 : 01101101;
    DF5 : 01101000;
    DF6 : 01001111;
    DF7 : 01010101;
    DF8 : 01001011;
    DF9 : 00111000;
    DFA : 01000001;
    DFB : 00111101;
    DFC : 00111111;
    DFD : 00111111;
    DFE : 01001001;
    DFF : 01000101;
    E00 : 01000101;
    E01 : 01001001;
    E02 : 01001000;
    E03 : 01001010;
    E04 : 01101100;
    E05 : 01101110;
    E06 : 01011110;
    E07 : 01101001;
    E08 : 01101111;
    E09 : 01101101;
    E0A : 10011001;
    E0B : 10110100;
    E0C : 10110101;
    E0D : 10101011;
    E0E : 01111011;
    E0F : 10001111;
    E10 : 10111011;
    E11 : 01101100;
    E12 : 01101011;
    E13 : 01010100;
    E14 : 01001101;
    E15 : 01000111;
    E16 : 01000010;
    E17 : 00111111;
    E18 : 00111010;
    E19 : 00111101;
    E1A : 00111111;
    E1B : 01000000;
    E1C : 00111101;
    E1D : 01001100;
    E1E : 01011010;
    E1F : 01001110;
    E20 : 01011110;
    E21 : 01100111;
    E22 : 01100111;
    E23 : 01111101;
    E24 : 01111110;
    E25 : 10001001;
    E26 : 10011011;
    E27 : 01111011;
    E28 : 01101000;
    E29 : 01010101;
    E2A : 01011001;
    E2B : 01101111;
    E2C : 01100010;
    E2D : 01011111;
    E2E : 01101110;
    E2F : 10000001;
    E30 : 10100110;
    E31 : 11000100;
    E32 : 11001011;
    E33 : 11001010;
    E34 : 11001001;
    E35 : 11001010;
    E36 : 11001010;
    E37 : 11001001;
    E38 : 11001001;
    E39 : 11001001;
    E3A : 11001001;
    E3B : 11001000;
    E3C : 11001000;
    E3D : 11001000;
    E3E : 11001000;
    E3F : 11001000;
    E40 : 11001000;
    E41 : 11000111;
    E42 : 11000111;
    E43 : 11000111;
    E44 : 11000111;
    E45 : 11000110;
    E46 : 11000110;
    E47 : 11000101;
    E48 : 11000101;
    E49 : 11000101;
    E4A : 11000100;
    E4B : 11000100;
    E4C : 11000100;
    E4D : 11000010;
    E4E : 11000010;
    E4F : 11000001;
    E50 : 11000000;
    E51 : 10111111;
    E52 : 10111110;
    E53 : 10111101;
    E54 : 10111100;
    E55 : 10111011;
    E56 : 10111010;
    E57 : 10111001;
    E58 : 10111000;
    E59 : 10110111;
    E5A : 10110110;
    E5B : 10110101;
    E5C : 10110101;
    E5D : 10110100;
    E5E : 10110010;
    E5F : 10110001;
    E60 : 00010100;
    E61 : 01010010;
    E62 : 10000110;
    E63 : 01111010;
    E64 : 01101111;
    E65 : 01011111;
    E66 : 00111011;
    E67 : 00110101;
    E68 : 00110111;
    E69 : 00101110;
    E6A : 00110000;
    E6B : 00111000;
    E6C : 00111011;
    E6D : 00111111;
    E6E : 01000001;
    E6F : 01000111;
    E70 : 01000101;
    E71 : 01000010;
    E72 : 01000011;
    E73 : 01000111;
    E74 : 01000111;
    E75 : 01000011;
    E76 : 00111000;
    E77 : 00101110;
    E78 : 00110001;
    E79 : 00110011;
    E7A : 00101111;
    E7B : 00111110;
    E7C : 01010111;
    E7D : 01110101;
    E7E : 00110010;
    E7F : 01001100;
    E80 : 01000011;
    E81 : 01000110;
    E82 : 01100001;
    E83 : 01010110;
    E84 : 01101101;
    E85 : 10001010;
    E86 : 10010001;
    E87 : 01111111;
    E88 : 01100000;
    E89 : 01010011;
    E8A : 01010111;
    E8B : 01011000;
    E8C : 01011110;
    E8D : 01011100;
    E8E : 01011010;
    E8F : 01011111;
    E90 : 01100100;
    E91 : 01100111;
    E92 : 01110001;
    E93 : 01110110;
    E94 : 01111001;
    E95 : 01111001;
    E96 : 01110110;
    E97 : 01101010;
    E98 : 01100000;
    E99 : 01010100;
    E9A : 01000101;
    E9B : 01000111;
    E9C : 00111111;
    E9D : 01000010;
    E9E : 01001010;
    E9F : 01001010;
    EA0 : 01000101;
    EA1 : 01001001;
    EA2 : 01001110;
    EA3 : 01100110;
    EA4 : 01101010;
    EA5 : 01011100;
    EA6 : 01101101;
    EA7 : 01111101;
    EA8 : 01111000;
    EA9 : 10100000;
    EAA : 10111001;
    EAB : 10101110;
    EAC : 10100001;
    EAD : 10101101;
    EAE : 10100110;
    EAF : 10011110;
    EB0 : 10110011;
    EB1 : 10010100;
    EB2 : 01100001;
    EB3 : 01100001;
    EB4 : 01010100;
    EB5 : 01000111;
    EB6 : 01000010;
    EB7 : 00111101;
    EB8 : 00111011;
    EB9 : 00110000;
    EBA : 00111100;
    EBB : 00110001;
    EBC : 00111011;
    EBD : 01000000;
    EBE : 00111010;
    EBF : 01000011;
    EC0 : 01010011;
    EC1 : 01010011;
    EC2 : 01100010;
    EC3 : 01101011;
    EC4 : 01110011;
    EC5 : 10010010;
    EC6 : 10011000;
    EC7 : 10000100;
    EC8 : 01101101;
    EC9 : 01011110;
    ECA : 01110101;
    ECB : 01110100;
    ECC : 01100000;
    ECD : 01011111;
    ECE : 01101110;
    ECF : 01111001;
    ED0 : 10011010;
    ED1 : 10111000;
    ED2 : 11001011;
    ED3 : 11001010;
    ED4 : 11001011;
    ED5 : 11001011;
    ED6 : 11001010;
    ED7 : 11001011;
    ED8 : 11001010;
    ED9 : 11001010;
    EDA : 11001011;
    EDB : 11001010;
    EDC : 11001010;
    EDD : 11001001;
    EDE : 11001010;
    EDF : 11001010;
    EE0 : 11001010;
    EE1 : 11001010;
    EE2 : 11001001;
    EE3 : 11001001;
    EE4 : 11001001;
    EE5 : 11001000;
    EE6 : 11001001;
    EE7 : 11001000;
    EE8 : 11001000;
    EE9 : 11000111;
    EEA : 11000111;
    EEB : 11000110;
    EEC : 11000110;
    EED : 11000101;
    EEE : 11000100;
    EEF : 11000011;
    EF0 : 11000001;
    EF1 : 11000000;
    EF2 : 10111111;
    EF3 : 10111110;
    EF4 : 10111110;
    EF5 : 10111100;
    EF6 : 10111011;
    EF7 : 10111011;
    EF8 : 10111001;
    EF9 : 10111000;
    EFA : 10110111;
    EFB : 10110110;
    EFC : 10110101;
    EFD : 10110100;
    EFE : 10110010;
    EFF : 10110000;
    F00 : 00010001;
    F01 : 01001100;
    F02 : 10000011;
    F03 : 01110001;
    F04 : 01100110;
    F05 : 01010011;
    F06 : 00111010;
    F07 : 00110010;
    F08 : 00111000;
    F09 : 00110011;
    F0A : 00111011;
    F0B : 01000000;
    F0C : 01000010;
    F0D : 01000000;
    F0E : 01000001;
    F0F : 00111011;
    F10 : 00111011;
    F11 : 00111100;
    F12 : 00111111;
    F13 : 01000001;
    F14 : 00111100;
    F15 : 00110010;
    F16 : 00101100;
    F17 : 00101100;
    F18 : 00101101;
    F19 : 00100101;
    F1A : 00100100;
    F1B : 00110001;
    F1C : 01001100;
    F1D : 01111000;
    F1E : 01001101;
    F1F : 00111111;
    F20 : 01010101;
    F21 : 01001001;
    F22 : 01100000;
    F23 : 01101100;
    F24 : 10001100;
    F25 : 10010010;
    F26 : 10000011;
    F27 : 01100000;
    F28 : 01011011;
    F29 : 01100010;
    F2A : 01011100;
    F2B : 01100010;
    F2C : 01100001;
    F2D : 01011101;
    F2E : 01011101;
    F2F : 01100000;
    F30 : 01100110;
    F31 : 01101110;
    F32 : 01110100;
    F33 : 01110100;
    F34 : 01110011;
    F35 : 01110001;
    F36 : 01110011;
    F37 : 01110111;
    F38 : 01101011;
    F39 : 01100010;
    F3A : 01001111;
    F3B : 01000100;
    F3C : 01000101;
    F3D : 00111100;
    F3E : 01000010;
    F3F : 01001000;
    F40 : 01000100;
    F41 : 01000010;
    F42 : 01011011;
    F43 : 01101011;
    F44 : 01100011;
    F45 : 01100100;
    F46 : 01111000;
    F47 : 01110101;
    F48 : 10010101;
    F49 : 10111010;
    F4A : 10100101;
    F4B : 01110010;
    F4C : 10010100;
    F4D : 10100110;
    F4E : 10011101;
    F4F : 10100001;
    F50 : 10110101;
    F51 : 10100010;
    F52 : 01101100;
    F53 : 01101101;
    F54 : 01010001;
    F55 : 01001110;
    F56 : 01000111;
    F57 : 01000000;
    F58 : 01000000;
    F59 : 00111001;
    F5A : 00110100;
    F5B : 00110101;
    F5C : 00111001;
    F5D : 00101011;
    F5E : 00110100;
    F5F : 00111110;
    F60 : 01000000;
    F61 : 01001101;
    F62 : 01011001;
    F63 : 01011111;
    F64 : 01110110;
    F65 : 10000010;
    F66 : 10001000;
    F67 : 01111110;
    F68 : 01101001;
    F69 : 01111101;
    F6A : 10000101;
    F6B : 01101001;
    F6C : 01110111;
    F6D : 01100111;
    F6E : 01110010;
    F6F : 10000100;
    F70 : 10010100;
    F71 : 10110100;
    F72 : 11001000;
    F73 : 11001011;
    F74 : 11001100;
    F75 : 11001100;
    F76 : 11001100;
    F77 : 11001100;
    F78 : 11001100;
    F79 : 11001100;
    F7A : 11001100;
    F7B : 11001100;
    F7C : 11001100;
    F7D : 11001100;
    F7E : 11001100;
    F7F : 11001100;
    F80 : 11001100;
    F81 : 11001011;
    F82 : 11001011;
    F83 : 11001011;
    F84 : 11001011;
    F85 : 11001011;
    F86 : 11001010;
    F87 : 11001010;
    F88 : 11001001;
    F89 : 11001001;
    F8A : 11001000;
    F8B : 11001000;
    F8C : 11000110;
    F8D : 11000110;
    F8E : 11000101;
    F8F : 11000011;
    F90 : 11000010;
    F91 : 11000001;
    F92 : 11000000;
    F93 : 10111111;
    F94 : 10111110;
    F95 : 10111101;
    F96 : 10111100;
    F97 : 10111010;
    F98 : 10111001;
    F99 : 10111000;
    F9A : 10110111;
    F9B : 10110110;
    F9C : 10110101;
    F9D : 10110011;
    F9E : 10110001;
    F9F : 10101111;
    FA0 : 00001110;
    FA1 : 00111110;
    FA2 : 01111110;
    FA3 : 01100110;
    FA4 : 01011101;
    FA5 : 01010100;
    FA6 : 00111100;
    FA7 : 00101101;
    FA8 : 00111010;
    FA9 : 00111011;
[...]
    4748 : 01001101;
    4749 : 01010011;
    474A : 01010010;
    474B : 01010000;
    474C : 01010110;
    474D : 01010100;
    474E : 01010011;
    474F : 01010000;
    4750 : 01011100;
    4751 : 01100000;
    4752 : 01011010;
    4753 : 01100100;
    4754 : 01110100;
    4755 : 10000010;
    4756 : 10000001;
    4757 : 01111011;
    4758 : 01110101;
    4759 : 01101001;
    475A : 01100011;
    475B : 01101011;
    475C : 01110100;
    475D : 01110010;
    475E : 01101111;
    475F : 01101110;
    4760 : 01101010;
    4761 : 01101001;
    4762 : 01100110;
    4763 : 01100000;
    4764 : 01011101;
    4765 : 01100010;
    4766 : 01100110;
    4767 : 01101001;
    4768 : 01101111;
    4769 : 01110110;
    476A : 01111100;
    476B : 10000110;
    476C : 10001011;
    476D : 10001101;
    476E : 10011001;
    476F : 10101010;
    4770 : 10110111;
    4771 : 11000001;
    4772 : 11000101;
    4773 : 11000100;
    4774 : 11000011;
    4775 : 11000010;
    4776 : 11000011;
    4777 : 11000100;
    4778 : 11000000;
    4779 : 10111100;
    477A : 10101101;
    477B : 10100111;
    477C : 10100111;
    477D : 10110000;
    477E : 10111000;
    477F : 10111110;
    4780 : 10111110;
    4781 : 10111001;
    4782 : 10110001;
    4783 : 10111000;
    4784 : 10111000;
    4785 : 10110111;
    4786 : 10111001;
    4787 : 10111010;
    4788 : 10110111;
    4789 : 10111000;
    478A : 10111010;
    478B : 10111001;
    478C : 10111100;
    478D : 10111100;
    478E : 10111100;
    478F : 10111100;
    4790 : 10111010;
    4791 : 10111111;
    4792 : 10111101;
    4793 : 10111011;
    4794 : 10110101;
    4795 : 10111000;
    4796 : 10000110;
    4797 : 01001111;
    4798 : 10110101;
    4799 : 11000001;
    479A : 11000011;
    479B : 10111111;
    479C : 10110111;
    479D : 10101111;
    479E : 10101010;
    479F : 10100110;
    47A0 : 10100111;
    47A1 : 10100011;
    47A2 : 10010000;
    47A3 : 10010011;
    47A4 : 10010011;
    47A5 : 10010111;
    47A6 : 10011000;
    47A7 : 10010100;
    47A8 : 10011101;
    47A9 : 10011011;
    47AA : 10100010;
    47AB : 10100111;
    47AC : 10100100;
    47AD : 10100100;
    47AE : 10110101;
    47AF : 10111000;
    47B0 : 10111100;
    47B1 : 10111110;
    47B2 : 10111110;
    47B3 : 10111101;
    47B4 : 10111100;
    47B5 : 10111011;
    47B6 : 10111010;
    47B7 : 10111001;
    47B8 : 10111000;
    47B9 : 10110111;
    47BA : 10110101;
    47BB : 10110011;
    47BC : 10110010;
    47BD : 10110000;
    47BE : 10101111;
    47BF : 10101101;
    47C0 : 10101100;
    47C1 : 10101010;
    47C2 : 10101000;
    47C3 : 10100111;
    47C4 : 10100101;
    47C5 : 10100100;
    47C6 : 10100010;
    47C7 : 10100001;
    47C8 : 10100000;
    47C9 : 10011110;
    47CA : 10011101;
    47CB : 10011011;
    47CC : 10011001;
    47CD : 10010111;
    47CE : 10010101;
    47CF : 10010011;
    47D0 : 10010010;
    47D1 : 10010001;
    47D2 : 10010001;
    47D3 : 10010010;
    47D4 : 10010100;
    47D5 : 10010110;
    47D6 : 10010111;
    47D7 : 10011000;
    47D8 : 10011000;
    47D9 : 10011001;
    47DA : 10011001;
    47DB : 10011001;
    47DC : 10011010;
    47DD : 10011010;
    47DE : 10011010;
    47DF : 10011010;
    47E0 : 01001011;
    47E1 : 01010010;
    47E2 : 01010011;
    47E3 : 01010010;
    47E4 : 01001110;
    47E5 : 01001100;
    47E6 : 01001111;
    47E7 : 01001111;
    47E8 : 01010000;
    47E9 : 01010100;
    47EA : 01010001;
    47EB : 01011001;
    47EC : 01010100;
    47ED : 01010001;
    47EE : 01010111;
    47EF : 01011110;
    47F0 : 01100000;
    47F1 : 01011010;
    47F2 : 01100011;
    47F3 : 01110101;
    47F4 : 10000001;
    47F5 : 10000010;
    47F6 : 01111000;
    47F7 : 01111000;
    47F8 : 01110010;
    47F9 : 01101001;
    47FA : 01101000;
    47FB : 01101001;
    47FC : 01101001;
    47FD : 01100100;
    47FE : 01101000;
    47FF : 01100011;
    4800 : 01100011;
    4801 : 01101001;
    4802 : 01101110;
    4803 : 01101011;
    4804 : 01101011;
    4805 : 01110000;
    4806 : 01110011;
    4807 : 01110110;
    4808 : 01111001;
    4809 : 01111101;
    480A : 10000101;
    480B : 10001110;
    480C : 10001110;
    480D : 10010011;
    480E : 10011011;
    480F : 10101000;
    4810 : 10110100;
    4811 : 10111001;
    4812 : 11000110;
    4813 : 11001011;
    4814 : 11001011;
    4815 : 11001001;
    4816 : 11000011;
    4817 : 10111110;
    4818 : 10111101;
    4819 : 10110111;
    481A : 10110111;
    481B : 10111001;
    481C : 10101000;
    481D : 10100101;
    481E : 10100111;
    481F : 10011001;
    4820 : 10001101;
    4821 : 10001110;
    4822 : 10011101;
    4823 : 10101110;
    4824 : 10101111;
    4825 : 10110000;
    4826 : 10110111;
    4827 : 10110110;
    4828 : 10110100;
    4829 : 10111100;
    482A : 10101111;
    482B : 10101111;
    482C : 10110000;
    482D : 10101001;
    482E : 10111110;
    482F : 10110100;
    4830 : 10110111;
    4831 : 10111000;
    4832 : 10110111;
    4833 : 10111010;
    4834 : 10110110;
    4835 : 10110110;
    4836 : 01111111;
    4837 : 01110101;
    4838 : 10110110;
    4839 : 11000010;
    483A : 11000110;
    483B : 11000010;
    483C : 10110101;
    483D : 10101010;
    483E : 10100011;
    483F : 10011111;
    4840 : 10011110;
    4841 : 10011010;
    4842 : 10010010;
    4843 : 10010101;
    4844 : 10011000;
    4845 : 10010101;
    4846 : 10011001;
    4847 : 10011000;
    4848 : 10010101;
    4849 : 10011101;
    484A : 10100001;
    484B : 10100100;
    484C : 10100101;
    484D : 10101000;
    484E : 10111000;
    484F : 10110111;
    4850 : 10111101;
    4851 : 10111110;
    4852 : 10111110;
    4853 : 10111100;
    4854 : 10111011;
    4855 : 10111010;
    4856 : 10111001;
    4857 : 10111000;
    4858 : 10110111;
    4859 : 10110101;
    485A : 10110011;
    485B : 10110010;
    485C : 10110000;
    485D : 10101111;
    485E : 10101110;
    485F : 10101011;
    4860 : 10101010;
    4861 : 10101000;
    4862 : 10100111;
    4863 : 10100101;
    4864 : 10100100;
    4865 : 10100010;
    4866 : 10100001;
    4867 : 10011111;
    4868 : 10011110;
    4869 : 10011100;
    486A : 10011010;
    486B : 10011000;
    486C : 10010110;
    486D : 10010101;
    486E : 10010011;
    486F : 10010001;
    4870 : 10010000;
    4871 : 10001111;
    4872 : 10001110;
    4873 : 10001111;
    4874 : 10010000;
    4875 : 10010010;
    4876 : 10010100;
    4877 : 10010101;
    4878 : 10010101;
    4879 : 10010110;
    487A : 10010110;
    487B : 10010111;
    487C : 10010111;
    487D : 10011000;
    487E : 10011001;
    487F : 10011001;
    4880 : 01001100;
    4881 : 01010010;
    4882 : 01010001;
    4883 : 01001111;
    4884 : 01001011;
    4885 : 01001101;
    4886 : 01010001;
    4887 : 01010000;
    4888 : 01010001;
    4889 : 01001110;
    488A : 01010010;
    488B : 01010010;
    488C : 01010011;
    488D : 01010110;
    488E : 01100000;
    488F : 01011110;
    4890 : 01011100;
    4891 : 01100100;
    4892 : 01101111;
    4893 : 01111101;
    4894 : 10000001;
    4895 : 01110100;
    4896 : 01110011;
    4897 : 01110100;
    4898 : 01110001;
    4899 : 01101100;
    489A : 01101010;
    489B : 01100101;
    489C : 01101010;
    489D : 01101010;
    489E : 01101110;
    489F : 01101010;
    48A0 : 01100100;
    48A1 : 01100101;
    48A2 : 01101001;
    48A3 : 01100101;
    48A4 : 01100000;
    48A5 : 01100010;
    48A6 : 01100010;
    48A7 : 01011101;
    48A8 : 01100011;
    48A9 : 01101110;
    48AA : 01110101;
    48AB : 01111010;
    48AC : 10000000;
    48AD : 10010000;
    48AE : 10010101;
    48AF : 10100001;
    48B0 : 10100101;
    48B1 : 10101111;
    48B2 : 11000101;
    48B3 : 11001111;
    48B4 : 11001101;
    48B5 : 11000101;
    48B6 : 10111011;
    48B7 : 10111000;
    48B8 : 10111100;
    48B9 : 10111001;
    48BA : 10110101;
    48BB : 10110001;
    48BC : 10110100;
    48BD : 10110101;
    48BE : 10101000;
    48BF : 10100001;
    48C0 : 10011001;
    48C1 : 10011001;
    48C2 : 10100000;
    48C3 : 10100001;
    48C4 : 10011011;
    48C5 : 10100000;
    48C6 : 10110000;
    48C7 : 10100000;
    48C8 : 10100100;
    48C9 : 10110011;
    48CA : 10011111;
    48CB : 10101111;
    48CC : 10101110;
    48CD : 10110000;
    48CE : 10111110;
    48CF : 10111110;
    48D0 : 11000001;
    48D1 : 11000010;
    48D2 : 11000000;
    48D3 : 10111010;
    48D4 : 10110001;
    48D5 : 10101011;
    48D6 : 01111000;
    48D7 : 10001110;
    48D8 : 10110101;
    48D9 : 10111111;
    48DA : 11000001;
    48DB : 11000001;
    48DC : 10111000;
    48DD : 10101001;
    48DE : 10100011;
    48DF : 10010111;
    48E0 : 10010011;
    48E1 : 10001101;
    48E2 : 10001011;
    48E3 : 10010110;
    48E4 : 10011001;
    48E5 : 10011010;
    48E6 : 10011100;
    48E7 : 10011101;
    48E8 : 10011010;
    48E9 : 10010100;
    48EA : 10011111;
    48EB : 10101001;
    48EC : 10101000;
    48ED : 10110001;
    48EE : 10111010;
    48EF : 10111010;
    48F0 : 10111100;
    48F1 : 10111110;
    48F2 : 10111101;
    48F3 : 10111100;
    48F4 : 10111011;
    48F5 : 10111001;
    48F6 : 10111000;
    48F7 : 10110111;
    48F8 : 10110110;
    48F9 : 10110100;
    48FA : 10110010;
    48FB : 10110001;
    48FC : 10101111;
    48FD : 10101110;
    48FE : 10101100;
    48FF : 10101010;
    4900 : 10101001;
    4901 : 10100111;
    4902 : 10100110;
    4903 : 10100100;
    4904 : 10100011;
    4905 : 10100010;
    4906 : 10100001;
    4907 : 10011111;
    4908 : 10011110;
    4909 : 10011011;
    490A : 10011010;
    490B : 10011000;
    490C : 10010101;
    490D : 10010011;
    490E : 10010010;
    490F : 10010000;
    4910 : 10001111;
    4911 : 10001110;
    4912 : 10001101;
    4913 : 10001101;
    4914 : 10001110;
    4915 : 10001111;
    4916 : 10010001;
    4917 : 10010010;
    4918 : 10010010;
    4919 : 10010011;
    491A : 10010011;
    491B : 10010100;
    491C : 10010110;
    491D : 10010110;
    491E : 10010111;
    491F : 10010111;
    4920 : 01001011;
    4921 : 01010011;
    4922 : 01010011;
    4923 : 01001100;
    4924 : 01001100;
    4925 : 01001110;
    4926 : 01010001;
    4927 : 01001110;
    4928 : 01001010;
    4929 : 01001111;
    492A : 01001111;
    492B : 01001101;
    492C : 01010111;
    492D : 01100001;
    492E : 01011001;
    492F : 01011100;
    4930 : 01101010;
    4931 : 01110001;
    4932 : 01111100;
    4933 : 01111101;
    4934 : 01101111;
    4935 : 01101110;
    4936 : 01110000;
    4937 : 01111000;
    4938 : 01110111;
    4939 : 01110010;
    493A : 01110010;
    493B : 01101111;
    493C : 01101111;
    493D : 01101101;
    493E : 01100010;
    493F : 01011101;
    4940 : 01011001;
    4941 : 01011100;
    4942 : 01011010;
    4943 : 01011000;
    4944 : 01011101;
    4945 : 01100000;
    4946 : 01100011;
    4947 : 01011110;
    4948 : 01101000;
    4949 : 01101110;
    494A : 01110101;
    494B : 01111111;
    494C : 10000111;
    494D : 10010010;
    494E : 10011010;
    494F : 10011010;
    4950 : 10011110;
    4951 : 10100010;
    4952 : 10111100;
    4953 : 11010000;
    4954 : 11001111;
    4955 : 11001001;
    4956 : 11000110;
    4957 : 11000010;
    4958 : 10111100;
    4959 : 10110111;
    495A : 10111101;
    495B : 11000011;
    495C : 10111000;
    495D : 10100010;
    495E : 10011110;
    495F : 10101010;
    4960 : 10110010;
    4961 : 10111001;
    4962 : 10110111;
    4963 : 10111000;
    4964 : 10110100;
    4965 : 10110100;
    4966 : 10110100;
    4967 : 10110100;
    4968 : 10111011;
    4969 : 10111001;
    496A : 10111100;
    496B : 10111111;
    496C : 10111101;
    496D : 10111011;
    496E : 11000000;
    496F : 10111111;
    4970 : 10111111;
    4971 : 10111111;
    4972 : 10111100;
    4973 : 10110100;
    4974 : 10110000;
    4975 : 10001111;
    4976 : 01111101;
    4977 : 10010101;
    4978 : 10100110;
    4979 : 10111000;
    497A : 10111111;
    497B : 10111111;
    497C : 10111001;
    497D : 10110001;
    497E : 10101101;
    497F : 10100010;
    4980 : 10011100;
    4981 : 10010100;
    4982 : 10010111;
    4983 : 10011000;
    4984 : 10011001;
    4985 : 10010101;
    4986 : 10011110;
    4987 : 10011111;
    4988 : 10011110;
    4989 : 10011011;
    498A : 10010111;
    498B : 10100010;
    498C : 10110000;
    498D : 10111000;
    498E : 10111011;
    498F : 10111110;
    4990 : 10111101;
    4991 : 10111110;
    4992 : 10111110;
    4993 : 10111100;
    4994 : 10111011;
    4995 : 10111001;
    4996 : 10111000;
    4997 : 10110110;
    4998 : 10110101;
    4999 : 10110011;
    499A : 10110001;
    499B : 10110000;
    499C : 10101110;
    499D : 10101101;
    499E : 10101011;
    499F : 10101001;
    49A0 : 10101000;
    49A1 : 10100111;
    49A2 : 10100110;
    49A3 : 10100100;
    49A4 : 10100011;
    49A5 : 10100010;
    49A6 : 10100001;
    49A7 : 10011111;
    49A8 : 10011110;
    49A9 : 10011011;
    49AA : 10011010;
    49AB : 10011000;
    49AC : 10010110;
    49AD : 10010011;
    49AE : 10010001;
    49AF : 10001111;
    49B0 : 10001101;
    49B1 : 10001101;
    49B2 : 10001100;
    49B3 : 10001011;
    49B4 : 10001100;
    49B5 : 10001110;
    49B6 : 10001111;
    49B7 : 10010000;
    49B8 : 10010000;
    49B9 : 10010001;
    49BA : 10010001;
    49BB : 10010010;
    49BC : 10010100;
    49BD : 10010101;
    49BE : 10010101;
    49BF : 10010110;
    49C0 : 01001100;
    49C1 : 01010110;
    49C2 : 01001101;
    49C3 : 01001011;
    49C4 : 01001011;
    49C5 : 01001100;
    49C6 : 01001101;
    49C7 : 01001010;
    49C8 : 01001101;
    49C9 : 01001110;
    49CA : 01001001;
    49CB : 01010110;
    49CC : 01011111;
    49CD : 01011100;
    49CE : 01011110;
    49CF : 01101101;
    49D0 : 01101101;
    49D1 : 01110001;
    49D2 : 01111100;
    49D3 : 01110011;
    49D4 : 01110000;
    49D5 : 01111001;
    49D6 : 10000010;
    49D7 : 01111000;
    49D8 : 01101101;
    49D9 : 01101001;
    49DA : 01100111;
    49DB : 01100111;
    49DC : 01100100;
    49DD : 01011101;
    49DE : 01100000;
    49DF : 01011011;
    49E0 : 01011110;
    49E1 : 01100010;
    49E2 : 01011000;
    49E3 : 01011000;
    49E4 : 01100000;
    49E5 : 01100100;
    49E6 : 01100100;
    49E7 : 01100110;
    49E8 : 01101100;
    49E9 : 01110001;
    49EA : 01110101;
    49EB : 01111111;
    49EC : 10000110;
    49ED : 10010000;
    49EE : 10011000;
    49EF : 10011100;
    49F0 : 10011111;
    49F1 : 10100011;
    49F2 : 10110100;
    49F3 : 11001000;
    49F4 : 11001111;
    49F5 : 11001000;
    49F6 : 11000100;
    49F7 : 11000011;
    49F8 : 11000100;
    49F9 : 11000011;
    49FA : 11000010;
    49FB : 10111011;
    49FC : 10110011;
    49FD : 10101101;
    49FE : 10100101;
    49FF : 10100101;
    4A00 : 10100101;
    4A01 : 10100001;
    4A02 : 10011010;
    4A03 : 10100101;
    4A04 : 10110010;
    4A05 : 10110100;
    4A06 : 10110101;
    4A07 : 10111101;
    4A08 : 10111010;
    4A09 : 10101111;
    4A0A : 10111000;
    4A0B : 10111001;
    4A0C : 10110110;
    4A0D : 10111110;
    4A0E : 10111101;
    4A0F : 10111001;
    4A10 : 10111010;
    4A11 : 10111010;
    4A12 : 10110101;
    4A13 : 10101000;
    4A14 : 01101111;
    4A15 : 01000011;
    4A16 : 01100010;
    4A17 : 10001011;
    4A18 : 10011001;
    4A19 : 10101000;
    4A1A : 10111010;
    4A1B : 10111101;
    4A1C : 10111000;
    4A1D : 10110010;
    4A1E : 10101011;
    4A1F : 10100011;
    4A20 : 10011110;
    4A21 : 10010000;
    4A22 : 10000101;
    4A23 : 10011000;
    4A24 : 10011001;
    4A25 : 10010011;
    4A26 : 10011011;
    4A27 : 10100011;
    4A28 : 10011101;
    4A29 : 10011001;
    4A2A : 10011101;
    4A2B : 10100010;
    4A2C : 10101101;
    4A2D : 10111010;
    4A2E : 10111100;
    4A2F : 11000000;
    4A30 : 10111110;
    4A31 : 10111110;
    4A32 : 10111110;
    4A33 : 10111100;
    4A34 : 10111010;
    4A35 : 10111001;
    4A36 : 10110111;
    4A37 : 10110101;
    4A38 : 10110100;
    4A39 : 10110010;
    4A3A : 10110000;
    4A3B : 10101111;
    4A3C : 10101110;
    4A3D : 10101100;
    4A3E : 10101011;
    4A3F : 10101001;
    4A40 : 10101000;
    4A41 : 10100111;
    4A42 : 10100110;
    4A43 : 10100101;
    4A44 : 10100011;
    4A45 : 10100011;
    4A46 : 10100010;
    4A47 : 10100000;
    4A48 : 10011110;
    4A49 : 10011100;
    4A4A : 10011001;
    4A4B : 10011000;
    4A4C : 10010110;
    4A4D : 10010100;
    4A4E : 10010010;
    4A4F : 10001111;
    4A50 : 10001101;
    4A51 : 10001100;
    4A52 : 10001011;
    4A53 : 10001011;
    4A54 : 10001011;
    4A55 : 10001100;
    4A56 : 10001101;
    4A57 : 10001110;
    4A58 : 10001111;
    4A59 : 10001111;
    4A5A : 10010000;
    4A5B : 10010001;
    4A5C : 10010011;
    4A5D : 10010011;
    4A5E : 10010100;
    4A5F : 10010101;
    4A60 : 01010011;
    4A61 : 01010010;
    4A62 : 01000111;
    4A63 : 01001000;
    4A64 : 01001000;
    4A65 : 01001001;
    4A66 : 01001100;
    4A67 : 01001100;
    4A68 : 01001100;
    4A69 : 01001011;
    4A6A : 01001111;
    4A6B : 01100000;
    4A6C : 01011111;
    4A6D : 01100001;
    4A6E : 01100111;
    4A6F : 01101110;
    4A70 : 01110010;
    4A71 : 01110110;
    4A72 : 01111000;
    4A73 : 01101110;
    4A74 : 01111010;
    4A75 : 10000011;
    4A76 : 01110110;
    4A77 : 01101000;
    4A78 : 01101010;
    4A79 : 01101000;
    4A7A : 01100111;
    4A7B : 01100010;
    4A7C : 01100010;
    4A7D : 01011110;
    4A7E : 01011111;
    4A7F : 01011110;
    4A80 : 01011011;
    4A81 : 01100000;
    4A82 : 01011111;
    4A83 : 01011111;
    4A84 : 01100100;
    4A85 : 01101100;
    4A86 : 01101110;
    4A87 : 01101001;
    4A88 : 01101010;
    4A89 : 01101011;
    4A8A : 01101101;
    4A8B : 01110010;
    4A8C : 01111110;
    4A8D : 10010100;
    4A8E : 10100001;
    4A8F : 10011011;
    4A90 : 10010011;
    4A91 : 10011000;
    4A92 : 10100110;
    4A93 : 11000100;
    4A94 : 11001011;
    4A95 : 11000100;
    4A96 : 11000110;
    4A97 : 11001001;
    4A98 : 11000101;
    4A99 : 10111001;
    4A9A : 10110101;
    4A9B : 10111000;
    4A9C : 10110010;
    4A9D : 10100100;
    4A9E : 10011101;
    4A9F : 10100000;
    4AA0 : 10100111;
    4AA1 : 10011101;
    4AA2 : 10010111;
    4AA3 : 10100010;
    4AA4 : 10110000;
    4AA5 : 10101010;
    4AA6 : 10100011;
    4AA7 : 10110110;
    4AA8 : 10110111;
    4AA9 : 10110000;
    4AAA : 10110100;
    4AAB : 10110010;
    4AAC : 10110011;
    4AAD : 10111110;
    4AAE : 10111001;
    4AAF : 10110000;
    4AB0 : 10111001;
    4AB1 : 10110011;
    4AB2 : 10101110;
    4AB3 : 01110011;
    4AB4 : 00100010;
    4AB5 : 00101100;
    4AB6 : 00110001;
    4AB7 : 01010111;
    4AB8 : 10001001;
    4AB9 : 10011111;
    4ABA : 10110001;
    4ABB : 10111001;
    4ABC : 10111000;
    4ABD : 10101100;
    4ABE : 10101000;
    4ABF : 10011000;
    4AC0 : 10010011;
    4AC1 : 10001111;
    4AC2 : 10000110;
    4AC3 : 10001111;
    4AC4 : 10011110;
    4AC5 : 10010101;
    4AC6 : 10011011;
    4AC7 : 10101000;
    4AC8 : 10100000;
    4AC9 : 10011000;
    4ACA : 10011011;
    4ACB : 10101001;
    4ACC : 10101100;
    4ACD : 10111000;
    4ACE : 10111100;
    4ACF : 11000001;
    4AD0 : 11000000;
    4AD1 : 10111111;
    4AD2 : 10111101;
    4AD3 : 10111100;
    4AD4 : 10111010;
    4AD5 : 10111000;
    4AD6 : 10110111;
    4AD7 : 10110100;
    4AD8 : 10110100;
    4AD9 : 10110001;
    4ADA : 10110000;
    4ADB : 10101111;
    4ADC : 10101110;
    4ADD : 10101100;
    4ADE : 10101011;
    4ADF : 10101001;
    4AE0 : 10101000;
    4AE1 : 10100111;
    4AE2 : 10100111;
    4AE3 : 10100101;
    4AE4 : 10100100;
    4AE5 : 10100011;
    4AE6 : 10100010;
    4AE7 : 10100001;
    4AE8 : 10011110;
    4AE9 : 10011100;
    4AEA : 10011010;
    4AEB : 10011000;
    4AEC : 10010110;
    4AED : 10010100;
    4AEE : 10010010;
    4AEF : 10010000;
    4AF0 : 10001101;
    4AF1 : 10001101;
    4AF2 : 10001011;
    4AF3 : 10001011;
    4AF4 : 10001100;
    4AF5 : 10001101;
    4AF6 : 10001101;
    4AF7 : 10001101;
    4AF8 : 10001110;
    4AF9 : 10001111;
    4AFA : 10001111;
    4AFB : 10010000;
    4AFC : 10010001;
    4AFD : 10010010;
    4AFE : 10010011;
    4AFF : 10010100;
END;
